<?xml version="1.0" encoding="UTF-8"?>

<!-- generated on 2026-07-12 16:26:34.017060 by Eclipse SUMO randomTrips.py v1.27.1
<configuration>
    <net-file value="cuenca.net.xml"/>
    <output-trip-file value="background.trips.xml"/>
    <prefix value="bg"/>
    <trip-attributes value="departLane=&quot;best&quot; departSpeed=&quot;max&quot;"/>
    <vehicle-class value="passenger"/>
    <fringe-factor value="5"/>
    <end value="400.0"/>
    <period value="0.9"/>
</configuration>
-->

<routes xmlns:xsi="http://www.w3.org/2001/XMLSchema-instance" xsi:noNamespaceSchemaLocation="http://sumo.dlr.de/xsd/routes_file.xsd">
    <vType id="bg_passenger" vClass="passenger"/>
    <trip id="bg0" depart="0.00" from="42201276#2" to="-271044649#0" departLane="best" departSpeed="max" type="bg_passenger"/>
    <trip id="bg1" depart="0.90" from="-48907241#0" to="1006284720#1" departLane="best" departSpeed="max" type="bg_passenger"/>
    <trip id="bg2" depart="1.80" from="48548032#1" to="48548001#0" departLane="best" departSpeed="max" type="bg_passenger"/>
    <trip id="bg3" depart="2.70" from="542428845#0" to="-410339451#1" departLane="best" departSpeed="max" type="bg_passenger"/>
    <trip id="bg4" depart="3.60" from="144175303#2" to="-301162182#0" departLane="best" departSpeed="max" type="bg_passenger"/>
    <trip id="bg5" depart="4.50" from="-485182258" to="405030855" departLane="best" departSpeed="max" type="bg_passenger"/>
    <trip id="bg6" depart="5.40" from="-144175309" to="-65141886#3" departLane="best" departSpeed="max" type="bg_passenger"/>
    <trip id="bg7" depart="6.30" from="42453882#0" to="42143228" departLane="best" departSpeed="max" type="bg_passenger"/>
    <trip id="bg8" depart="7.20" from="-485182263" to="45393763#0" departLane="best" departSpeed="max" type="bg_passenger"/>
    <trip id="bg9" depart="8.10" from="49577742#1" to="-118367899" departLane="best" departSpeed="max" type="bg_passenger"/>
    <trip id="bg10" depart="9.00" from="49577054#2" to="48548064#2" departLane="best" departSpeed="max" type="bg_passenger"/>
    <trip id="bg11" depart="9.90" from="-59825632#0" to="-49578948" departLane="best" departSpeed="max" type="bg_passenger"/>
    <trip id="bg12" depart="10.80" from="673393112" to="306186364#0" departLane="best" departSpeed="max" type="bg_passenger"/>
    <trip id="bg13" depart="11.70" from="-385192450" to="-45393809#3" departLane="best" departSpeed="max" type="bg_passenger"/>
    <trip id="bg14" depart="12.60" from="49589765#0" to="45394215#3" departLane="best" departSpeed="max" type="bg_passenger"/>
    <trip id="bg15" depart="13.50" from="49577533" to="48904815" departLane="best" departSpeed="max" type="bg_passenger"/>
    <trip id="bg16" depart="14.40" from="39503440#0" to="86484916" departLane="best" departSpeed="max" type="bg_passenger"/>
    <trip id="bg17" depart="15.30" from="-86484923" to="42195044#4" departLane="best" departSpeed="max" type="bg_passenger"/>
    <trip id="bg18" depart="16.20" from="49582168#1" to="47198301#2" departLane="best" departSpeed="max" type="bg_passenger"/>
    <trip id="bg19" depart="17.10" from="523917171#0" to="427451695#1" departLane="best" departSpeed="max" type="bg_passenger"/>
    <trip id="bg20" depart="18.00" from="48147644#0" to="-329243314#1" departLane="best" departSpeed="max" type="bg_passenger"/>
    <trip id="bg21" depart="18.90" from="-48537876#1" to="248268266#4" departLane="best" departSpeed="max" type="bg_passenger"/>
    <trip id="bg22" depart="19.80" from="-338566781#0" to="1179685339" departLane="best" departSpeed="max" type="bg_passenger"/>
    <trip id="bg23" depart="20.70" from="-397270813" to="175493669" departLane="best" departSpeed="max" type="bg_passenger"/>
    <trip id="bg24" depart="21.60" from="42201259#8" to="335232731" departLane="best" departSpeed="max" type="bg_passenger"/>
    <trip id="bg25" depart="22.50" from="-86222254" to="-86134870" departLane="best" departSpeed="max" type="bg_passenger"/>
    <trip id="bg26" depart="23.40" from="-48904780#2" to="697644177#0" departLane="best" departSpeed="max" type="bg_passenger"/>
    <trip id="bg27" depart="24.30" from="42207980#0" to="45427996#2" departLane="best" departSpeed="max" type="bg_passenger"/>
    <trip id="bg28" depart="25.20" from="-407033231" to="48904813#0" departLane="best" departSpeed="max" type="bg_passenger"/>
    <trip id="bg29" depart="26.10" from="-406970756" to="338566787#6" departLane="best" departSpeed="max" type="bg_passenger"/>
    <trip id="bg30" depart="27.00" from="894857847" to="484829766" departLane="best" departSpeed="max" type="bg_passenger"/>
    <trip id="bg31" depart="27.90" from="400051327#1" to="48548026#2" departLane="best" departSpeed="max" type="bg_passenger"/>
    <trip id="bg32" depart="28.80" from="49586968#1" to="49577768" departLane="best" departSpeed="max" type="bg_passenger"/>
    <trip id="bg33" depart="29.70" from="-48538433" to="-301162960#6" departLane="best" departSpeed="max" type="bg_passenger"/>
    <trip id="bg34" depart="30.60" from="-509047926" to="144175329#2" departLane="best" departSpeed="max" type="bg_passenger"/>
    <trip id="bg35" depart="31.50" from="-484829768" to="767900975#1" departLane="best" departSpeed="max" type="bg_passenger"/>
    <trip id="bg36" depart="32.40" from="542393523#1" to="29223063#1" departLane="best" departSpeed="max" type="bg_passenger"/>
    <trip id="bg37" depart="33.30" from="427451695#0" to="380639370#1" departLane="best" departSpeed="max" type="bg_passenger"/>
    <trip id="bg38" depart="34.20" from="553352498#4" to="402781583" departLane="best" departSpeed="max" type="bg_passenger"/>
    <trip id="bg39" depart="35.10" from="-48860950#8" to="1181518323" departLane="best" departSpeed="max" type="bg_passenger"/>
    <trip id="bg40" depart="36.00" from="400332924#0" to="144175303#0" departLane="best" departSpeed="max" type="bg_passenger"/>
    <trip id="bg41" depart="36.90" from="402915813#0" to="554582108#12" departLane="best" departSpeed="max" type="bg_passenger"/>
    <trip id="bg42" depart="37.80" from="1118423672#3" to="-895322470" departLane="best" departSpeed="max" type="bg_passenger"/>
    <trip id="bg43" depart="38.70" from="91011044#0" to="405472706" departLane="best" departSpeed="max" type="bg_passenger"/>
    <trip id="bg44" depart="39.60" from="-380639371#1" to="-334122583#2" departLane="best" departSpeed="max" type="bg_passenger"/>
    <trip id="bg45" depart="40.50" from="-400334461#1" to="48147640#0" departLane="best" departSpeed="max" type="bg_passenger"/>
    <trip id="bg46" depart="41.40" from="49217126#0" to="399278568" departLane="best" departSpeed="max" type="bg_passenger"/>
    <trip id="bg47" depart="42.30" from="895455491" to="407058943" departLane="best" departSpeed="max" type="bg_passenger"/>
    <trip id="bg48" depart="43.20" from="86134851#1" to="542402344#0" departLane="best" departSpeed="max" type="bg_passenger"/>
    <trip id="bg49" depart="44.10" from="-1181517043" to="48903010#3" departLane="best" departSpeed="max" type="bg_passenger"/>
    <trip id="bg50" depart="45.00" from="45421575#3" to="416636171" departLane="best" departSpeed="max" type="bg_passenger"/>
    <trip id="bg51" depart="45.90" from="-48904780#2" to="484829767" departLane="best" departSpeed="max" type="bg_passenger"/>
    <trip id="bg52" depart="46.80" from="-400672352#4" to="400084630#1" departLane="best" departSpeed="max" type="bg_passenger"/>
    <trip id="bg53" depart="47.70" from="271044649#1" to="84865274#0" departLane="best" departSpeed="max" type="bg_passenger"/>
    <trip id="bg54" depart="48.60" from="542393519#0" to="144175306#0" departLane="best" departSpeed="max" type="bg_passenger"/>
    <trip id="bg55" depart="49.50" from="334948975#3" to="-542393521" departLane="best" departSpeed="max" type="bg_passenger"/>
    <trip id="bg56" depart="50.40" from="552715043" to="542417200#7" departLane="best" departSpeed="max" type="bg_passenger"/>
    <trip id="bg57" depart="51.30" from="-49586903#0" to="484829765#4" departLane="best" departSpeed="max" type="bg_passenger"/>
    <trip id="bg58" depart="52.20" from="406679834" to="-49577779#0" departLane="best" departSpeed="max" type="bg_passenger"/>
    <trip id="bg59" depart="53.10" from="48859314#3" to="420367910#1" departLane="best" departSpeed="max" type="bg_passenger"/>
    <trip id="bg60" depart="54.00" from="48908512#6" to="40972458" departLane="best" departSpeed="max" type="bg_passenger"/>
    <trip id="bg61" depart="54.90" from="-1008982928" to="300393828" departLane="best" departSpeed="max" type="bg_passenger"/>
    <trip id="bg62" depart="55.80" from="-1190070840" to="62818985#1" departLane="best" departSpeed="max" type="bg_passenger"/>
    <trip id="bg63" depart="56.70" from="542395209#6" to="506574923#0" departLane="best" departSpeed="max" type="bg_passenger"/>
    <trip id="bg64" depart="57.60" from="-49589765#0" to="-380635441#0" departLane="best" departSpeed="max" type="bg_passenger"/>
    <trip id="bg65" depart="58.50" from="542395207#2" to="83631654" departLane="best" departSpeed="max" type="bg_passenger"/>
    <trip id="bg66" depart="59.40" from="-351440623" to="403675123#1" departLane="best" departSpeed="max" type="bg_passenger"/>
    <trip id="bg67" depart="60.30" from="-312128241" to="492471759#3" departLane="best" departSpeed="max" type="bg_passenger"/>
    <trip id="bg68" depart="61.20" from="48903010#1" to="-48555667#1" departLane="best" departSpeed="max" type="bg_passenger"/>
    <trip id="bg69" depart="62.10" from="305213949#0" to="42143918#8" departLane="best" departSpeed="max" type="bg_passenger"/>
    <trip id="bg70" depart="63.00" from="-48860950#9" to="542435213" departLane="best" departSpeed="max" type="bg_passenger"/>
    <trip id="bg71" depart="63.90" from="144175306#4" to="-86484908#0" departLane="best" departSpeed="max" type="bg_passenger"/>
    <trip id="bg72" depart="64.80" from="39525771" to="48904815" departLane="best" departSpeed="max" type="bg_passenger"/>
    <trip id="bg73" depart="65.70" from="-48147640#3" to="286680917" departLane="best" departSpeed="max" type="bg_passenger"/>
    <trip id="bg74" depart="66.60" from="895322469#0" to="485164522" departLane="best" departSpeed="max" type="bg_passenger"/>
    <trip id="bg75" depart="67.50" from="248268266#1" to="406873917" departLane="best" departSpeed="max" type="bg_passenger"/>
    <trip id="bg76" depart="68.40" from="-402904485" to="1079647159#0" departLane="best" departSpeed="max" type="bg_passenger"/>
    <trip id="bg77" depart="69.30" from="-573216742" to="45393761#4" departLane="best" departSpeed="max" type="bg_passenger"/>
    <trip id="bg78" depart="70.20" from="-48538963#1" to="-895455491" departLane="best" departSpeed="max" type="bg_passenger"/>
    <trip id="bg79" depart="71.10" from="-323349734" to="48150230#1" departLane="best" departSpeed="max" type="bg_passenger"/>
    <trip id="bg80" depart="72.00" from="-48538433" to="573216742" departLane="best" departSpeed="max" type="bg_passenger"/>
    <trip id="bg81" depart="72.90" from="51972212" to="-403123152#4" departLane="best" departSpeed="max" type="bg_passenger"/>
    <trip id="bg82" depart="73.80" from="-48548007#1" to="48538970" departLane="best" departSpeed="max" type="bg_passenger"/>
    <trip id="bg83" depart="74.70" from="-485014676#3" to="-48555675#0" departLane="best" departSpeed="max" type="bg_passenger"/>
    <trip id="bg84" depart="75.60" from="60204532#7" to="42453884#0" departLane="best" departSpeed="max" type="bg_passenger"/>
    <trip id="bg85" depart="76.50" from="303119547#1" to="49578956" departLane="best" departSpeed="max" type="bg_passenger"/>
    <trip id="bg86" depart="77.40" from="49577731#0" to="-59829982#6" departLane="best" departSpeed="max" type="bg_passenger"/>
    <trip id="bg87" depart="78.30" from="-394184279" to="400016031" departLane="best" departSpeed="max" type="bg_passenger"/>
    <trip id="bg88" depart="79.20" from="144175309" to="402912986" departLane="best" departSpeed="max" type="bg_passenger"/>
    <trip id="bg89" depart="80.10" from="48548012" to="48547990" departLane="best" departSpeed="max" type="bg_passenger"/>
    <trip id="bg90" depart="81.00" from="875629476" to="-45427996#0" departLane="best" departSpeed="max" type="bg_passenger"/>
    <trip id="bg91" depart="81.90" from="1148281186#0" to="310108973#2" departLane="best" departSpeed="max" type="bg_passenger"/>
    <trip id="bg92" depart="82.80" from="523917171#0" to="118664583#2" departLane="best" departSpeed="max" type="bg_passenger"/>
    <trip id="bg93" depart="83.70" from="-45393764#2" to="400907052" departLane="best" departSpeed="max" type="bg_passenger"/>
    <trip id="bg94" depart="84.60" from="144175303#2" to="186249134" departLane="best" departSpeed="max" type="bg_passenger"/>
    <trip id="bg95" depart="85.50" from="-48548050" to="61426871#5" departLane="best" departSpeed="max" type="bg_passenger"/>
    <trip id="bg96" depart="86.40" from="250034824" to="542402347#4" departLane="best" departSpeed="max" type="bg_passenger"/>
    <trip id="bg97" depart="87.30" from="399285452#5" to="-338566781#0" departLane="best" departSpeed="max" type="bg_passenger"/>
    <trip id="bg98" depart="88.20" from="972644144#4" to="51972210#0" departLane="best" departSpeed="max" type="bg_passenger"/>
    <trip id="bg99" depart="89.10" from="84719901#1" to="62202961#2" departLane="best" departSpeed="max" type="bg_passenger"/>
    <trip id="bg100" depart="90.00" from="49589767#0" to="-49589767#0" departLane="best" departSpeed="max" type="bg_passenger"/>
    <trip id="bg101" depart="90.90" from="311212628#8" to="-86484927" departLane="best" departSpeed="max" type="bg_passenger"/>
    <trip id="bg102" depart="91.80" from="1118423680" to="-380635441#2" departLane="best" departSpeed="max" type="bg_passenger"/>
    <trip id="bg103" depart="92.70" from="-86484923" to="893257053" departLane="best" departSpeed="max" type="bg_passenger"/>
    <trip id="bg104" depart="93.60" from="-48860950#9" to="49578954" departLane="best" departSpeed="max" type="bg_passenger"/>
    <trip id="bg105" depart="94.50" from="283122505#0" to="399285450#1" departLane="best" departSpeed="max" type="bg_passenger"/>
    <trip id="bg106" depart="95.40" from="673393112" to="895716698" departLane="best" departSpeed="max" type="bg_passenger"/>
    <trip id="bg107" depart="96.30" from="400016016" to="48860950#11" departLane="best" departSpeed="max" type="bg_passenger"/>
    <trip id="bg108" depart="97.20" from="-405025248#1" to="250034823" departLane="best" departSpeed="max" type="bg_passenger"/>
    <trip id="bg109" depart="98.10" from="84719901#0" to="427931812" departLane="best" departSpeed="max" type="bg_passenger"/>
    <trip id="bg110" depart="99.00" from="39525774#4" to="49217105#2" departLane="best" departSpeed="max" type="bg_passenger"/>
    <trip id="bg111" depart="99.90" from="-301162960#2" to="444786635" departLane="best" departSpeed="max" type="bg_passenger"/>
    <trip id="bg112" depart="100.80" from="334968134#0" to="542393509#1" departLane="best" departSpeed="max" type="bg_passenger"/>
    <trip id="bg113" depart="101.70" from="-405472700" to="86134866#1" departLane="best" departSpeed="max" type="bg_passenger"/>
    <trip id="bg114" depart="102.60" from="-338566781#2" to="-59825632#1" departLane="best" departSpeed="max" type="bg_passenger"/>
    <trip id="bg115" depart="103.50" from="404261127#0" to="48547999#1" departLane="best" departSpeed="max" type="bg_passenger"/>
    <trip id="bg116" depart="104.40" from="-48547994#0" to="-48548028#0" departLane="best" departSpeed="max" type="bg_passenger"/>
    <trip id="bg117" depart="105.30" from="542417196#0" to="1181518322" departLane="best" departSpeed="max" type="bg_passenger"/>
    <trip id="bg118" depart="106.20" from="404117715" to="47198306#0" departLane="best" departSpeed="max" type="bg_passenger"/>
    <trip id="bg119" depart="107.10" from="1390741701" to="444786635" departLane="best" departSpeed="max" type="bg_passenger"/>
    <trip id="bg120" depart="108.00" from="351447911#3" to="661761282#2" departLane="best" departSpeed="max" type="bg_passenger"/>
    <trip id="bg121" depart="108.90" from="-48202924#4" to="48859304#2" departLane="best" departSpeed="max" type="bg_passenger"/>
    <trip id="bg122" depart="109.80" from="-48548007#1" to="380639370#3" departLane="best" departSpeed="max" type="bg_passenger"/>
    <trip id="bg123" depart="110.70" from="45393779#0" to="264396528" departLane="best" departSpeed="max" type="bg_passenger"/>
    <trip id="bg124" depart="111.60" from="-509965321#1" to="49217126#0" departLane="best" departSpeed="max" type="bg_passenger"/>
    <trip id="bg125" depart="112.50" from="-334104877#2" to="402768071" departLane="best" departSpeed="max" type="bg_passenger"/>
    <trip id="bg126" depart="113.40" from="972644142#0" to="895742359" departLane="best" departSpeed="max" type="bg_passenger"/>
    <trip id="bg127" depart="114.30" from="-334122581" to="-86484922#0" departLane="best" departSpeed="max" type="bg_passenger"/>
    <trip id="bg128" depart="115.20" from="-48860950#9" to="65141886#6" departLane="best" departSpeed="max" type="bg_passenger"/>
    <trip id="bg129" depart="116.10" from="542397044#0" to="549778901#0" departLane="best" departSpeed="max" type="bg_passenger"/>
    <trip id="bg130" depart="117.00" from="-86134881#2" to="-49578960" departLane="best" departSpeed="max" type="bg_passenger"/>
    <trip id="bg131" depart="117.90" from="49586905#3" to="48552542#6" departLane="best" departSpeed="max" type="bg_passenger"/>
    <trip id="bg132" depart="118.80" from="40668089#4" to="894857821" departLane="best" departSpeed="max" type="bg_passenger"/>
    <trip id="bg133" depart="119.70" from="427421010#1" to="-1187788645" departLane="best" departSpeed="max" type="bg_passenger"/>
    <trip id="bg134" depart="120.60" from="49577777" to="260532894" departLane="best" departSpeed="max" type="bg_passenger"/>
    <trip id="bg135" depart="121.50" from="447252437" to="740080580#6" departLane="best" departSpeed="max" type="bg_passenger"/>
    <trip id="bg136" depart="122.40" from="-403386104#1" to="-48547994#0" departLane="best" departSpeed="max" type="bg_passenger"/>
    <trip id="bg137" depart="123.30" from="-400014566" to="42201259#0" departLane="best" departSpeed="max" type="bg_passenger"/>
    <trip id="bg138" depart="124.20" from="-48904815" to="45421575#5" departLane="best" departSpeed="max" type="bg_passenger"/>
    <trip id="bg139" depart="125.10" from="48537874" to="-84719882#3" departLane="best" departSpeed="max" type="bg_passenger"/>
    <trip id="bg140" depart="126.00" from="42195044#9" to="144175306#3" departLane="best" departSpeed="max" type="bg_passenger"/>
    <trip id="bg141" depart="126.90" from="311412765" to="573216742" departLane="best" departSpeed="max" type="bg_passenger"/>
    <trip id="bg142" depart="127.80" from="49589749" to="-45393762#0" departLane="best" departSpeed="max" type="bg_passenger"/>
    <trip id="bg143" depart="128.70" from="144175309" to="160630184#2" departLane="best" departSpeed="max" type="bg_passenger"/>
    <trip id="bg144" depart="129.60" from="-1179951475" to="49577748#2" departLane="best" departSpeed="max" type="bg_passenger"/>
    <trip id="bg145" depart="130.50" from="42201267#0" to="144175302#1" departLane="best" departSpeed="max" type="bg_passenger"/>
    <trip id="bg146" depart="131.40" from="48548056#2" to="42195044#1" departLane="best" departSpeed="max" type="bg_passenger"/>
    <trip id="bg147" depart="132.30" from="144175334#0" to="-1211147419" departLane="best" departSpeed="max" type="bg_passenger"/>
    <trip id="bg148" depart="133.20" from="-335232729#0" to="552440205#1" departLane="best" departSpeed="max" type="bg_passenger"/>
    <trip id="bg149" depart="134.10" from="552506218#0" to="42143233#1" departLane="best" departSpeed="max" type="bg_passenger"/>
    <trip id="bg150" depart="135.00" from="49586924#0" to="432383915#1" departLane="best" departSpeed="max" type="bg_passenger"/>
    <trip id="bg151" depart="135.90" from="-404316076" to="-48555666#2" departLane="best" departSpeed="max" type="bg_passenger"/>
    <trip id="bg152" depart="136.80" from="-49589767#2" to="554582108#7" departLane="best" departSpeed="max" type="bg_passenger"/>
    <trip id="bg153" depart="137.70" from="49222375" to="542402344#0" departLane="best" departSpeed="max" type="bg_passenger"/>
    <trip id="bg154" depart="138.60" from="549778901#0" to="-86134873#0" departLane="best" departSpeed="max" type="bg_passenger"/>
    <trip id="bg155" depart="139.50" from="-48548049" to="-47861237" departLane="best" departSpeed="max" type="bg_passenger"/>
    <trip id="bg156" depart="140.40" from="48908518#3" to="552479285" departLane="best" departSpeed="max" type="bg_passenger"/>
    <trip id="bg157" depart="141.30" from="-405025248#1" to="641640490" departLane="best" departSpeed="max" type="bg_passenger"/>
    <trip id="bg158" depart="142.20" from="533190918#0" to="86484930#1" departLane="best" departSpeed="max" type="bg_passenger"/>
    <trip id="bg159" depart="143.10" from="49577747#0" to="552440200#1" departLane="best" departSpeed="max" type="bg_passenger"/>
    <trip id="bg160" depart="144.00" from="-1323966982#1" to="48908512#0-AddedOnRampEdge" departLane="best" departSpeed="max" type="bg_passenger"/>
    <trip id="bg161" depart="144.90" from="-549589229#1" to="645041668#3" departLane="best" departSpeed="max" type="bg_passenger"/>
    <trip id="bg162" depart="145.80" from="492471759#6" to="542406431#1" departLane="best" departSpeed="max" type="bg_passenger"/>
    <trip id="bg163" depart="146.70" from="49577747#0" to="144175315" departLane="best" departSpeed="max" type="bg_passenger"/>
    <trip id="bg164" depart="147.60" from="49217102" to="-48537821" departLane="best" departSpeed="max" type="bg_passenger"/>
    <trip id="bg165" depart="148.50" from="534903535#0" to="542395213#2" departLane="best" departSpeed="max" type="bg_passenger"/>
    <trip id="bg166" depart="149.40" from="-485182265" to="49586984#1" departLane="best" departSpeed="max" type="bg_passenger"/>
    <trip id="bg167" depart="150.30" from="300069416#0" to="269103108#1" departLane="best" departSpeed="max" type="bg_passenger"/>
    <trip id="bg168" depart="151.20" from="49222369#3" to="1118423677" departLane="best" departSpeed="max" type="bg_passenger"/>
    <trip id="bg169" depart="152.10" from="-1293068631" to="-605352056#0" departLane="best" departSpeed="max" type="bg_passenger"/>
    <trip id="bg170" depart="153.00" from="-542389418" to="542406434#0" departLane="best" departSpeed="max" type="bg_passenger"/>
    <trip id="bg171" depart="153.90" from="84618187#1" to="186585059#0" departLane="best" departSpeed="max" type="bg_passenger"/>
    <trip id="bg172" depart="154.80" from="42201277#4" to="392349033#0" departLane="best" departSpeed="max" type="bg_passenger"/>
    <trip id="bg173" depart="155.70" from="86484922#0" to="416636170#0" departLane="best" departSpeed="max" type="bg_passenger"/>
    <trip id="bg174" depart="156.60" from="608473624#2" to="-48547985" departLane="best" departSpeed="max" type="bg_passenger"/>
    <trip id="bg175" depart="157.50" from="84865274#0" to="-542393521" departLane="best" departSpeed="max" type="bg_passenger"/>
    <trip id="bg176" depart="158.40" from="767900974#0" to="144175310" departLane="best" departSpeed="max" type="bg_passenger"/>
    <trip id="bg177" depart="159.30" from="-400332930" to="400084630#0" departLane="best" departSpeed="max" type="bg_passenger"/>
    <trip id="bg178" depart="160.20" from="48548010#0" to="29223062#2" departLane="best" departSpeed="max" type="bg_passenger"/>
    <trip id="bg179" depart="161.10" from="406209028" to="406261768#5" departLane="best" departSpeed="max" type="bg_passenger"/>
    <trip id="bg180" depart="162.00" from="-893098022#1" to="427421010#1" departLane="best" departSpeed="max" type="bg_passenger"/>
    <trip id="bg181" depart="162.90" from="-48552542#6" to="48555670#1" departLane="best" departSpeed="max" type="bg_passenger"/>
    <trip id="bg182" depart="163.80" from="-1055114601#1" to="61654224" departLane="best" departSpeed="max" type="bg_passenger"/>
    <trip id="bg183" depart="164.70" from="39525769#1" to="48860950#6" departLane="best" departSpeed="max" type="bg_passenger"/>
    <trip id="bg184" depart="165.60" from="48548060#0" to="48538980#1" departLane="best" departSpeed="max" type="bg_passenger"/>
    <trip id="bg185" depart="166.50" from="-86134852#5" to="-402963032#1" departLane="best" departSpeed="max" type="bg_passenger"/>
    <trip id="bg186" depart="167.40" from="45393761#2" to="303119547#1" departLane="best" departSpeed="max" type="bg_passenger"/>
    <trip id="bg187" depart="168.30" from="-50123511" to="533567983" departLane="best" departSpeed="max" type="bg_passenger"/>
    <trip id="bg188" depart="169.20" from="48538962#2" to="264396528" departLane="best" departSpeed="max" type="bg_passenger"/>
    <trip id="bg189" depart="170.10" from="-49589777" to="395443763" departLane="best" departSpeed="max" type="bg_passenger"/>
    <trip id="bg190" depart="171.00" from="1127608013#3" to="250034431" departLane="best" departSpeed="max" type="bg_passenger"/>
    <trip id="bg191" depart="171.90" from="-402915827" to="398532019#4" departLane="best" departSpeed="max" type="bg_passenger"/>
    <trip id="bg192" depart="172.80" from="614107620" to="48548007#0" departLane="best" departSpeed="max" type="bg_passenger"/>
    <trip id="bg193" depart="173.70" from="552479285" to="46228068" departLane="best" departSpeed="max" type="bg_passenger"/>
    <trip id="bg194" depart="174.60" from="-49586931#3" to="42143918#10" departLane="best" departSpeed="max" type="bg_passenger"/>
    <trip id="bg195" depart="175.50" from="-1008982928" to="242087298#0" departLane="best" departSpeed="max" type="bg_passenger"/>
    <trip id="bg196" depart="176.40" from="427451695#0" to="402908026" departLane="best" departSpeed="max" type="bg_passenger"/>
    <trip id="bg197" depart="177.30" from="250034431" to="-86484927" departLane="best" departSpeed="max" type="bg_passenger"/>
    <trip id="bg198" depart="178.20" from="303119549" to="559145527#2" departLane="best" departSpeed="max" type="bg_passenger"/>
    <trip id="bg199" depart="179.10" from="49222373" to="-507118139#0" departLane="best" departSpeed="max" type="bg_passenger"/>
    <trip id="bg200" depart="180.00" from="-345400884#2" to="40668089#1" departLane="best" departSpeed="max" type="bg_passenger"/>
    <trip id="bg201" depart="180.90" from="42195044#1" to="305791291#0" departLane="best" departSpeed="max" type="bg_passenger"/>
    <trip id="bg202" depart="181.80" from="49578943" to="49217124#0" departLane="best" departSpeed="max" type="bg_passenger"/>
    <trip id="bg203" depart="182.70" from="45393787#0" to="1055114601#2" departLane="best" departSpeed="max" type="bg_passenger"/>
    <trip id="bg204" depart="183.60" from="-47198334#6" to="-269103122#5" departLane="best" departSpeed="max" type="bg_passenger"/>
    <trip id="bg205" depart="184.50" from="-48548032#6" to="402963032#1" departLane="best" departSpeed="max" type="bg_passenger"/>
    <trip id="bg206" depart="185.40" from="49589782#0" to="-403563921#0" departLane="best" departSpeed="max" type="bg_passenger"/>
    <trip id="bg207" depart="186.30" from="1211147423" to="48149035#0" departLane="best" departSpeed="max" type="bg_passenger"/>
    <trip id="bg208" depart="187.20" from="-45427996#2" to="48548057" departLane="best" departSpeed="max" type="bg_passenger"/>
    <trip id="bg209" depart="188.10" from="312834620" to="1181518320" departLane="best" departSpeed="max" type="bg_passenger"/>
    <trip id="bg210" depart="189.00" from="427451695#4" to="-1181521508" departLane="best" departSpeed="max" type="bg_passenger"/>
    <trip id="bg211" depart="189.90" from="48555666#6" to="49577745" departLane="best" departSpeed="max" type="bg_passenger"/>
    <trip id="bg212" depart="190.80" from="-398051548#1" to="399679491" departLane="best" departSpeed="max" type="bg_passenger"/>
    <trip id="bg213" depart="191.70" from="-410645793" to="86134857#0" departLane="best" departSpeed="max" type="bg_passenger"/>
    <trip id="bg214" depart="192.60" from="340205159#1" to="-338566780#0" departLane="best" departSpeed="max" type="bg_passenger"/>
    <trip id="bg215" depart="193.50" from="-48548048" to="533567984#0" departLane="best" departSpeed="max" type="bg_passenger"/>
    <trip id="bg216" depart="194.40" from="283122517#1" to="49586919" departLane="best" departSpeed="max" type="bg_passenger"/>
    <trip id="bg217" depart="195.30" from="45393769#0" to="894857821" departLane="best" departSpeed="max" type="bg_passenger"/>
    <trip id="bg218" depart="196.20" from="404316075" to="84618189#0" departLane="best" departSpeed="max" type="bg_passenger"/>
    <trip id="bg219" depart="197.10" from="542417200#1" to="45429543#3" departLane="best" departSpeed="max" type="bg_passenger"/>
    <trip id="bg220" depart="198.00" from="48538962#0" to="405025248#1" departLane="best" departSpeed="max" type="bg_passenger"/>
    <trip id="bg221" depart="198.90" from="49586886" to="42143918#1" departLane="best" departSpeed="max" type="bg_passenger"/>
    <trip id="bg222" depart="199.80" from="549210400" to="48963738#0" departLane="best" departSpeed="max" type="bg_passenger"/>
    <trip id="bg223" depart="200.70" from="304169507" to="1390417991" departLane="best" departSpeed="max" type="bg_passenger"/>
    <trip id="bg224" depart="201.60" from="-48548044" to="48204572" departLane="best" departSpeed="max" type="bg_passenger"/>
    <trip id="bg225" depart="202.50" from="48903010#1" to="406976393" departLane="best" departSpeed="max" type="bg_passenger"/>
    <trip id="bg226" depart="203.40" from="42143234#3" to="1472025792" departLane="best" departSpeed="max" type="bg_passenger"/>
    <trip id="bg227" depart="204.30" from="-336161682#2" to="242069299#0" departLane="best" departSpeed="max" type="bg_passenger"/>