<routes>
    <vType id="auto" vClass="passenger"/>
    <!-- Flujos que congestionan el corredor de la ambulancia -->
    <flow id="cor_full" type="auto" begin="0" end="500" vehsPerHour="350"
          departLane="best" departSpeed="max">
        <route edges="337277951#0 1053072563 337277977#0 337277977#1 49222366#3 49222366#4 49222366#6 49222366#8 49222366#9 552643689#0 552643689#1 400014568#0 400014568#1 334968591#0 334968591#1 334968591#2 893257053 559164160 40972457#0 40972457#1 40972457#2 40972457#3 402904478#0 402904478#3 400328791#0 552667594#0 42453876#3 42453876#4 42453876#5 65107381 65107389 305497107 40972452#6 40972452#7 40972452#1 40972452#2 305497113#0 552667596#0"/>
    </flow>
    <flow id="cor_ini" type="auto" begin="0" end="500" vehsPerHour="250"
          departLane="best" departSpeed="max">
        <route edges="337277951#0 1053072563 337277977#0 337277977#1 49222366#3 49222366#4 49222366#6 49222366#8 49222366#9 552643689#0 552643689#1 400014568#0 400014568#1 334968591#0 334968591#1 334968591#2 893257053 559164160 40972457#0"/>
    </flow>
    <flow id="cor_fin" type="auto" begin="0" end="500" vehsPerHour="250"
          departLane="best" departSpeed="max">
        <route edges="40972457#0 40972457#1 40972457#2 40972457#3 402904478#0 402904478#3 400328791#0 552667594#0 42453876#3 42453876#4 42453876#5 65107381 65107389 305497107 40972452#6 40972452#7 40972452#1 40972452#2 305497113#0 552667596#0"/>
    </flow>
</routes>
