<routes>
    <vType id="auto2" vClass="passenger"/>
    <!-- Congestión sobre la ruta alternativa preferida (27 tramos) -->
    <flow id="alt_full" type="auto2" begin="0" end="500" vehsPerHour="350"
          departLane="best" departSpeed="max">
        <route edges="337277951#0 337277973#0 337277984#0 337277984#2 337277984#4 337277984#5 337277984#6 337277984#8 337277984#11 389741419 48202923 48202922#0 47861233 47861236 47861237 389741418 60204530#0 60204533 50123511 50123512 48100787 992235860 334968135#0 40972452#1 40972452#2 305497113#0 552667596#0"/>
    </flow>
    <flow id="alt_ini" type="auto2" begin="0" end="500" vehsPerHour="250"
          departLane="best" departSpeed="max">
        <route edges="337277951#0 337277973#0 337277984#0 337277984#2 337277984#4 337277984#5 337277984#6 337277984#8 337277984#11 389741419 48202923 48202922#0 47861233"/>
    </flow>
    <flow id="alt_fin" type="auto2" begin="0" end="500" vehsPerHour="250"
          departLane="best" departSpeed="max">
        <route edges="47861233 47861236 47861237 389741418 60204530#0 60204533 50123511 50123512 48100787 992235860 334968135#0 40972452#1 40972452#2 305497113#0 552667596#0"/>
    </flow>
</routes>
