<?xml version="1.0" encoding="UTF-8"?>

<!-- generated on 2026-07-12T16:25:18.620862-05:00 by Eclipse SUMO polyconvert 1.27.1
<polyconvertConfiguration xmlns:xsi="http://www.w3.org/2001/XMLSchema-instance" xsi:noNamespaceSchemaLocation="http://sumo.dlr.de/xsd/polyconvertConfiguration.xsd">

    <input>
        <net-file value="cuenca.net.xml"/>
        <osm-files value="cuenca.osm.xml"/>
        <type-file value="/home/thyron001/sumo-venv/lib/python3.12/site-packages/sumo/data/typemap/osmPolyconvert.typ.xml"/>
    </input>

    <output>
        <output-file value="cuenca.poly.xml"/>
    </output>

</polyconvertConfiguration>
-->

<additional xmlns:xsi="http://www.w3.org/2001/XMLSchema-instance" xsi:noNamespaceSchemaLocation="http://sumo.dlr.de/xsd/additional_file.xsd">
    <location netOffset="-719784.72,323798.91" convBoundary="-5289.50,-4016.18,7034.89,6047.94" origBoundary="-79.070332,-2.964012,-78.959448,-2.873016" projParameter="+proj=utm +zone=17 +ellps=WGS84 +datum=WGS84 +units=m +no_defs"/>

    <poly id="1011922616" type="leisure" color="207,245,201" fill="1" layer="-2.00" shape="1672.944486,859.056582 1699.793839,856.100213 1696.570600,838.144445 1671.056107,841.363891 1672.944486,859.056582"/>
    <poly id="1011922616#1" type="sport" color="79,230,125" fill="1" layer="-2.00" shape="1672.944486,859.056582 1699.793839,856.100213 1696.570600,838.144445 1671.056107,841.363891 1672.944486,859.056582"/>
    <poly id="1019277013" type="building" color="255,230,230" fill="1" layer="-1.00" shape="1269.104365,3320.952627 1334.983594,3297.732632 1345.588713,3314.757467 1342.845240,3316.576124 1338.457898,3319.481548 1316.621727,3327.936546 1293.404006,3334.878745 1279.577855,3339.017333 1275.410410,3340.495628 1269.104365,3320.952627"/>
    <poly id="1019277100" type="building" color="255,230,230" fill="1" layer="-1.00" shape="1687.220642,3599.173803 1682.460876,3573.666703 1702.068410,3568.876437 1703.839578,3576.947139 1708.741005,3575.489663 1713.606789,3598.043554 1713.696508,3598.474737 1693.266992,3603.786267 1687.220642,3599.173803"/>
    <poly id="1019277574" type="building" color="255,230,230" fill="1" layer="-1.00" shape="1478.753461,3727.183471 1475.494992,3708.022198 1527.952397,3697.423122 1530.621335,3716.485894 1478.753461,3727.183471"/>
    <poly id="1019278011" type="building" color="255,230,230" fill="1" layer="-1.00" shape="2196.833728,3332.869280 2193.371278,3311.629026 2212.991382,3307.668121 2220.388706,3327.961336 2196.833728,3332.869280"/>
    <poly id="1025392997" type="building" color="255,230,230" fill="1" layer="-1.00" shape="1233.737088,1649.584205 1245.835271,1649.396960 1245.583933,1632.995429 1237.978083,1633.108389 1238.077716,1639.158031 1233.585365,1639.221257 1233.737088,1649.584205"/>
    <poly id="1032572687" type="school" color="237,199,199" fill="1" layer="-2.00" shape="2272.812094,2674.407622 2275.931109,2677.454686 2294.511507,2695.593531 2297.875594,2698.883484 2335.540256,2667.892998 2319.463814,2631.976217 2272.812094,2674.407622"/>
    <poly id="1043828746" type="building" color="255,230,230" fill="1" layer="-1.00" shape="2237.185614,3419.376243 2235.200897,3410.045057 2289.415279,3399.431377 2290.885101,3406.850084 2291.232945,3408.619079 2237.185614,3419.376243"/>
    <poly id="1043828747" type="building" color="255,230,230" fill="1" layer="-1.00" shape="2255.578371,3457.224510 2250.885785,3432.060098 2239.768392,3433.639160 2244.873532,3459.433267 2255.578371,3457.224510"/>
    <poly id="1050003638" type="building" color="255,230,230" fill="1" layer="-1.00" shape="1409.984847,861.247654 1413.041831,848.125074 1400.593597,845.260446 1397.547732,858.383005 1409.984847,861.247654"/>
    <poly id="1054301404" type="landuse" color="194,194,130" fill="1" layer="-3.00" shape="1940.758395,1054.377587 1941.652754,1038.250464 1627.874632,1034.360348 1584.967271,1061.986824 1588.548112,1068.395295 1604.432450,1077.546991 1621.001747,1052.765332 1643.061025,1044.984256 1669.030541,1047.515252 1717.335672,1053.877688 1759.663948,1057.153890 1839.328002,1051.338928 1887.874771,1049.704471 1912.025860,1048.898512 1940.758395,1054.377587"/>
    <poly id="105586306" type="building" color="255,230,230" fill="1" layer="-1.00" shape="2666.589079,2041.804568 2698.103222,2073.059771 2710.002964,2061.226495 2678.499917,2029.960215 2666.589079,2041.804568"/>
    <poly id="1076398286" type="building" color="255,230,230" fill="1" layer="-1.00" shape="2370.237698,4069.030827 2373.118852,4082.242528 2411.747050,4073.923733 2408.865892,4060.712031 2370.237698,4069.030827"/>
    <poly id="1076398287" type="tourism" color="207,245,201" fill="1" layer="-2.00" shape="2413.100912,4072.328701 2429.709559,4069.490208 2428.343411,4064.106362 2438.514449,4061.843263 2434.002786,4038.370690 2399.867627,4046.947033 2398.317379,4050.688063 2397.425500,4055.721961 2397.824247,4061.140689 2410.151553,4058.276554 2413.100912,4072.328701"/>
    <poly id="1076398288" type="building" color="255,230,230" fill="1" layer="-1.00" shape="2429.757196,4064.966558 2430.934787,4070.627238 2438.449361,4069.087720 2437.260630,4063.416000 2429.757196,4064.966558"/>
    <poly id="1076398289" type="building" color="255,230,230" fill="1" layer="-1.00" shape="2440.685713,4063.443150 2441.459706,4067.246449 2445.606103,4066.420705 2444.843231,4062.617385 2440.685713,4063.443150"/>
    <poly id="1076398292" type="amenity" color="237,199,199" fill="1" layer="-1.00" shape="2372.268403,4098.181571 2370.844459,4091.548041 2395.544431,4086.317402 2396.968377,4092.950933 2372.268403,4098.181571"/>
    <poly id="1076398293" type="amenity" color="237,199,199" fill="1" layer="-1.00" shape="2405.316326,4091.044969 2403.981905,4084.732022 2435.396227,4078.206587 2436.719530,4084.519554 2405.316326,4091.044969"/>
    <poly id="1076398294" type="building" color="255,230,230" fill="1" layer="-1.00" shape="2384.769775,4099.442538 2385.949465,4106.297699 2406.704746,4102.766191 2405.513915,4095.899988 2384.769775,4099.442538"/>
    <poly id="1076398295" type="tourism" color="207,245,201" fill="1" layer="-2.00" shape="2345.614289,4073.531365 2356.829067,4070.381632 2351.958197,4057.626896 2344.043551,4059.310894 2345.614289,4073.531365"/>
    <poly id="1076398296" type="leisure" color="207,245,201" fill="1" layer="-2.00" shape="2356.395191,4184.035562 2348.105131,4111.396622 2446.766605,4100.273519 2455.056769,4172.934612 2356.395191,4184.035562"/>
    <poly id="1076398300" type="building" color="255,230,230" fill="1" layer="-1.00" shape="2342.202742,4106.474221 2351.251710,4104.821410 2343.572467,4063.337584 2334.523502,4064.990396 2342.202742,4106.474221"/>
    <poly id="1076398301" type="leisure" color="207,245,201" fill="1" layer="-2.00" shape="2473.577599,4144.532943 2488.876021,4142.802761 2484.787511,4107.030643 2469.489093,4108.760827 2473.577599,4144.532943"/>
    <poly id="1076398301#1" type="sport" color="79,230,125" fill="1" layer="-2.00" shape="2473.577599,4144.532943 2488.876021,4142.802761 2484.787511,4107.030643 2469.489093,4108.760827 2473.577599,4144.532943"/>
    <poly id="1076398302" type="parking" color="184,184,179" fill="1" layer="-1.00" shape="2462.362011,4103.011080 2461.417925,4097.338929 2486.108851,4093.280653 2487.052939,4098.952805 2462.362011,4103.011080"/>
    <poly id="1076398303" type="parking" color="184,184,179" fill="1" layer="-1.00" shape="2492.908987,4115.444115 2500.413049,4114.247475 2498.445726,4102.162285 2490.952785,4103.358905 2492.908987,4115.444115"/>
    <poly id="1076398304" type="building" color="255,230,230" fill="1" layer="-1.00" shape="2500.962737,4167.500733 2515.015116,4165.440941 2508.713132,4123.047735 2494.660760,4125.107529 2500.962737,4167.500733"/>
    <poly id="1076398305" type="parking" color="184,184,179" fill="1" layer="-1.00" shape="2517.363665,4160.360235 2529.648162,4158.436274 2522.294132,4112.218134 2510.020762,4114.142077 2517.363665,4160.360235"/>
    <poly id="1076398306" type="leisure" color="207,245,201" fill="1" layer="-2.00" shape="2471.015690,4167.387549 2469.961555,4156.052837 2491.509114,4154.068334 2492.563271,4165.414107 2471.015690,4167.387549"/>
    <poly id="1076398308" type="leisure" color="207,245,201" fill="1" layer="-2.00" shape="2502.620113,4180.393855 2500.652325,4168.043223 2528.322965,4163.681080 2530.290775,4176.042773 2502.620113,4180.393855"/>
    <poly id="1076398309" type="leisure" color="207,245,201" fill="1" layer="-2.00" shape="2535.383059,4175.591405 2533.415268,4163.240771 2561.074790,4158.878640 2563.053705,4171.229255 2535.383059,4175.591405"/>
    <poly id="1076398313" type="building" color="255,230,230" fill="1" layer="-1.00" shape="2531.764471,4147.770641 2541.524755,4145.895363 2558.389419,4143.189127 2560.535936,4155.992910 2534.044097,4160.386166 2531.764471,4147.770641"/>
    <poly id="1076398314" type="building" color="255,230,230" fill="1" layer="-1.00" shape="2531.764471,4147.770641 2541.524755,4145.895363 2540.021129,4138.222322 2545.412625,4137.184241 2540.239439,4110.638122 2525.098784,4113.551463 2531.764471,4147.770641"/>
    <poly id="1076398315" type="parking" color="184,184,179" fill="1" layer="-1.00" shape="2546.278250,4142.502610 2558.373975,4140.733819 2553.602534,4108.679075 2541.506832,4110.458929 2546.278250,4142.502610"/>
    <poly id="1076398340" type="building" color="255,230,230" fill="1" layer="-1.00" shape="2508.305015,4093.363230 2510.332186,4107.859410 2511.069081,4109.539243 2532.702656,4105.884505 2529.938587,4089.708490 2508.305015,4093.363230"/>
    <poly id="1076398342" type="parking" color="184,184,179" fill="1" layer="-1.00" shape="2535.143262,4108.877486 2532.197510,4090.567198 2535.888331,4089.941334 2551.408512,4087.845766 2554.643433,4106.177666 2535.143262,4108.877486"/>
    <poly id="1076398343" type="parking" color="184,184,179" fill="1" layer="-1.00" shape="2510.332186,4107.859410 2505.351828,4108.719805 2501.464972,4086.429552 2491.937811,4088.072158 2491.747034,4087.088148 2489.644749,4074.140511 2499.560668,4072.242838 2508.476119,4070.546008 2518.514322,4068.625998 2528.374660,4066.739480 2531.387225,4066.159051 2532.342183,4071.687404 2534.892438,4086.425985 2507.422642,4091.163830 2510.332186,4107.859410"/>
    <poly id="1076398344" type="building" color="255,230,230" fill="1" layer="-1.00" shape="2459.709717,4093.470913 2491.747034,4087.088148 2489.644749,4074.140511 2474.583053,4077.684133 2465.601622,4079.801359 2456.220038,4082.018830 2459.709717,4093.470913"/>
    <poly id="108019209" type="school" color="237,199,199" fill="1" layer="-2.00" shape="2543.342541,2737.380975 2559.468047,2807.285301 2659.484339,2783.119076 2643.985719,2709.320470 2543.342541,2737.380975"/>
    <poly id="1081346188" type="amenity" color="237,199,199" fill="1" layer="-1.00" shape="2762.162493,3232.751051 2792.965046,3226.248568 2793.402369,3228.304971 2803.851445,3226.096599 2803.447815,3224.228158 2811.040066,3222.622082 2805.467411,3196.651788 2797.185967,3198.402865 2798.251103,3203.333780 2757.699817,3211.910679 2762.162493,3232.751051"/>
    <poly id="1081346188#1" type="building" color="255,230,230" fill="1" layer="-1.00" shape="2762.162493,3232.751051 2792.965046,3226.248568 2793.402369,3228.304971 2803.851445,3226.096599 2803.447815,3224.228158 2811.040066,3222.622082 2805.467411,3196.651788 2797.185967,3198.402865 2798.251103,3203.333780 2757.699817,3211.910679 2762.162493,3232.751051"/>
    <poly id="1081346189" type="amenity" color="237,199,199" fill="1" layer="-1.00" shape="2757.699817,3211.910679 2751.539189,3180.433508 2801.751273,3170.368530 2801.511226,3172.968075 2805.467411,3196.651788 2797.185967,3198.402865 2798.251103,3203.333780 2757.699817,3211.910679"/>
    <poly id="1081346189#1" type="building" color="255,230,230" fill="1" layer="-1.00" shape="2757.699817,3211.910679 2751.539189,3180.433508 2801.751273,3170.368530 2801.511226,3172.968075 2805.467411,3196.651788 2797.185967,3198.402865 2798.251103,3203.333780 2757.699817,3211.910679"/>
    <poly id="1081346194" type="amenity" color="237,199,199" fill="1" layer="-1.00" shape="2694.626984,3212.398204 2694.072442,3213.228690 2693.239760,3213.982247 2692.284365,3214.514820 2691.384024,3214.737613 2689.682661,3214.751679 2688.258304,3214.201192 2687.211486,3213.340356 2686.564895,3212.423512 2686.173696,3211.296075 2686.050006,3210.522088 2686.093001,3209.681446 2686.269575,3208.917988 2686.601851,3208.165315 2687.223054,3207.301531 2688.011373,3206.614413 2688.533473,3206.303808 2689.077949,3206.070584 2689.956070,3205.858891 2690.856743,3205.824119 2692.013630,3206.043276 2692.892825,3206.439885 2693.672252,3207.013632 2694.273952,3207.698294 2694.966177,3209.267602 2695.123325,3210.096830 2694.992228,3211.424272 2694.626984,3212.398204"/>
    <poly id="1081346194#1" type="water" color="181,209,209" fill="1" layer="-4.00" shape="2694.626984,3212.398204 2694.072442,3213.228690 2693.239760,3213.982247 2692.284365,3214.514820 2691.384024,3214.737613 2689.682661,3214.751679 2688.258304,3214.201192 2687.211486,3213.340356 2686.564895,3212.423512 2686.173696,3211.296075 2686.050006,3210.522088 2686.093001,3209.681446 2686.269575,3208.917988 2686.601851,3208.165315 2687.223054,3207.301531 2688.011373,3206.614413 2688.533473,3206.303808 2689.077949,3206.070584 2689.956070,3205.858891 2690.856743,3205.824119 2692.013630,3206.043276 2692.892825,3206.439885 2693.672252,3207.013632 2694.273952,3207.698294 2694.966177,3209.267602 2695.123325,3210.096830 2694.992228,3211.424272 2694.626984,3212.398204"/>
    <poly id="1081346195" type="amenity" color="237,199,199" fill="1" layer="-1.00" shape="2626.736473,3205.085794 2620.155712,3206.435690 2605.471843,3209.768594 2607.831672,3223.689061 2595.737350,3226.198942 2594.392711,3226.710081 2592.162435,3216.881613 2582.224934,3219.111182 2579.199091,3205.866557 2590.036951,3203.425257 2587.291221,3191.374625 2596.628446,3189.267776 2599.553488,3202.103357 2625.285990,3196.041214 2626.736473,3205.085794"/>
    <poly id="1081346195#1" type="building" color="255,230,230" fill="1" layer="-1.00" shape="2626.736473,3205.085794 2620.155712,3206.435690 2605.471843,3209.768594 2607.831672,3223.689061 2595.737350,3226.198942 2594.392711,3226.710081 2592.162435,3216.881613 2582.224934,3219.111182 2579.199091,3205.866557 2590.036951,3203.425257 2587.291221,3191.374625 2596.628446,3189.267776 2599.553488,3202.103357 2625.285990,3196.041214 2626.736473,3205.085794"/>
    <poly id="1081353721" type="amenity" color="237,199,199" fill="1" layer="-1.00" shape="2053.790126,3374.231510 2055.013438,3374.284656 2056.159551,3374.702918 2057.128326,3375.453295 2057.808426,3376.458561 2058.155196,3377.619255 2058.123978,3378.835914 2057.725680,3379.986860 2056.982326,3380.950393 2055.982742,3381.648936 2054.815771,3382.015973 2053.570278,3381.996047 2052.379724,3381.599982 2051.388708,3380.849644 2050.675228,3379.833377 2050.317280,3378.639523 2050.348459,3377.400744 2050.780079,3376.227619 2051.545653,3375.252987 2052.589718,3374.554365 2053.790126,3374.231510"/>
    <poly id="1081353721#1" type="water" color="181,209,209" fill="1" layer="-4.00" shape="2053.790126,3374.231510 2055.013438,3374.284656 2056.159551,3374.702918 2057.128326,3375.453295 2057.808426,3376.458561 2058.155196,3377.619255 2058.123978,3378.835914 2057.725680,3379.986860 2056.982326,3380.950393 2055.982742,3381.648936 2054.815771,3382.015973 2053.570278,3381.996047 2052.379724,3381.599982 2051.388708,3380.849644 2050.675228,3379.833377 2050.317280,3378.639523 2050.348459,3377.400744 2050.780079,3376.227619 2051.545653,3375.252987 2052.589718,3374.554365 2053.790126,3374.231510"/>
    <poly id="1081353723" type="building" color="255,230,230" fill="1" layer="-1.00" shape="1872.103810,3339.656982 1881.839008,3386.766642 1965.388060,3369.719845 1980.628330,3366.618321 1977.633708,3352.112825 1977.308479,3350.553932 1973.921322,3334.157861 1973.169926,3330.553612 1970.893067,3319.497584 1955.597242,3322.621328 1872.103810,3339.656982"/>
    <poly id="1081353723#1" type="historic" color="128,255,128" fill="1" layer="-1.00" shape="1872.103810,3339.656982 1881.839008,3386.766642 1965.388060,3369.719845 1980.628330,3366.618321 1977.633708,3352.112825 1977.308479,3350.553932 1973.921322,3334.157861 1973.169926,3330.553612 1970.893067,3319.497584 1955.597242,3322.621328 1872.103810,3339.656982"/>
    <poly id="1081353724" type="man_made" color="255,230,230" fill="1" layer="-1.00" shape="1965.388060,3369.719845 1962.337976,3355.291867 1977.633708,3352.112825 1980.628330,3366.618321 1965.388060,3369.719845"/>
    <poly id="1081353725" type="man_made" color="255,230,230" fill="1" layer="-1.00" shape="1958.647756,3337.292625 1955.597242,3322.621328 1970.893067,3319.497584 1973.921322,3334.157861 1958.647756,3337.292625"/>
    <poly id="1081353731" type="building" color="255,230,230" fill="1" layer="-1.00" shape="1883.827043,3416.957029 1897.439540,3405.132020 1904.198036,3409.997600 1906.100888,3423.376891 1907.931023,3433.349820 1887.900507,3437.897561 1883.827043,3416.957029"/>
    <poly id="1081353732" type="building" color="255,230,230" fill="1" layer="-1.00" shape="2085.258489,3354.334363 2086.928267,3361.642110 2092.677430,3386.915243 2107.294281,3383.416641 2119.198951,3380.564296 2113.217798,3356.165313 2120.598795,3354.581782 2118.236897,3345.760027 2112.156956,3347.341266 2085.258489,3354.334363"/>
    <poly id="1081353733" type="building" color="255,230,230" fill="1" layer="-1.00" shape="2112.680493,3480.414810 2130.321120,3476.391064 2155.219555,3470.286301 2151.613269,3455.759751 2158.026842,3454.188986 2159.583588,3460.457291 2164.936949,3481.981774 2115.873730,3494.035162 2113.297866,3483.687496 2112.680493,3480.414810"/>
    <poly id="1081353733#1" type="tourism" color="207,245,201" fill="1" layer="-2.00" shape="2112.680493,3480.414810 2130.321120,3476.391064 2155.219555,3470.286301 2151.613269,3455.759751 2158.026842,3454.188986 2159.583588,3460.457291 2164.936949,3481.981774 2115.873730,3494.035162 2113.297866,3483.687496 2112.680493,3480.414810"/>
    <poly id="1081353735" type="building" color="255,230,230" fill="1" layer="-1.00" shape="2235.472757,3532.766924 2282.198590,3525.783116 2285.981235,3526.793975 2282.273060,3511.250072 2232.302449,3519.544686 2235.472757,3532.766924"/>
    <poly id="1081353737" type="leisure" color="207,245,201" fill="1" layer="-2.00" shape="1905.596806,3294.937616 1900.613309,3275.038330 1921.087685,3269.969966 1926.082307,3289.869233 1905.596806,3294.937616"/>
    <poly id="1081353738" type="amenity" color="237,199,199" fill="1" layer="-1.00" shape="1912.780321,3282.250170 1913.080856,3282.415542 1913.337086,3282.680531 1913.482231,3283.012077 1913.505114,3283.377018 1913.416776,3283.731094 1913.206020,3284.030086 1912.906147,3284.240755 1912.561618,3284.351962 1912.194616,3284.330488 1911.849659,3284.198375 1911.582348,3283.955525 1911.403862,3283.635098 1911.336537,3283.292355 1911.391534,3282.949398 1911.546690,3282.650503 1911.790904,3282.406753 1912.090874,3282.251384 1912.435500,3282.195477 1912.780321,3282.250170"/>
    <poly id="1081353738#1" type="water" color="181,209,209" fill="1" layer="-4.00" shape="1912.780321,3282.250170 1913.080856,3282.415542 1913.337086,3282.680531 1913.482231,3283.012077 1913.505114,3283.377018 1913.416776,3283.731094 1913.206020,3284.030086 1912.906147,3284.240755 1912.561618,3284.351962 1912.194616,3284.330488 1911.849659,3284.198375 1911.582348,3283.955525 1911.403862,3283.635098 1911.336537,3283.292355 1911.391534,3282.949398 1911.546690,3282.650503 1911.790904,3282.406753 1912.090874,3282.251384 1912.435500,3282.195477 1912.780321,3282.250170"/>
    <poly id="1081353739" type="amenity" color="237,199,199" fill="1" layer="-1.00" shape="1794.794945,3262.892662 1796.141352,3263.387993 1797.254919,3264.270836 1798.046529,3265.452866 1798.415906,3266.823659 1798.340557,3268.239475 1797.820248,3269.567594 1796.910326,3270.664138 1795.710679,3271.418330 1794.321289,3271.774696 1792.753102,3271.633676 1791.339701,3270.983621 1790.225745,3269.879579 1789.556048,3268.465074 1789.419882,3266.916910 1789.817558,3265.412047 1790.716048,3264.138563 1791.993283,3263.240453 1793.371475,3262.839867 1794.794945,3262.892662"/>
    <poly id="1081353739#1" type="water" color="181,209,209" fill="1" layer="-4.00" shape="1794.794945,3262.892662 1796.141352,3263.387993 1797.254919,3264.270836 1798.046529,3265.452866 1798.415906,3266.823659 1798.340557,3268.239475 1797.820248,3269.567594 1796.910326,3270.664138 1795.710679,3271.418330 1794.321289,3271.774696 1792.753102,3271.633676 1791.339701,3270.983621 1790.225745,3269.879579 1789.556048,3268.465074 1789.419882,3266.916910 1789.817558,3265.412047 1790.716048,3264.138563 1791.993283,3263.240453 1793.371475,3262.839867 1794.794945,3262.892662"/>
    <poly id="1081353740" type="school" color="237,199,199" fill="1" layer="-2.00" shape="2226.457456,3244.347699 2281.066031,3230.304662 2282.481487,3225.811782 2268.923550,3148.769231 2256.463108,3151.744248 2242.101945,3155.187138 2248.187108,3181.786894 2248.478514,3183.080407 2214.510568,3191.722918 2223.218951,3230.296083 2226.457456,3244.347699"/>
    <poly id="1081356684" type="leisure" color="207,245,201" fill="1" layer="-2.00" shape="1252.644433,2920.830945 1314.774583,2890.516887 1285.480214,2831.253626 1267.122431,2794.124317 1204.981229,2824.438396 1249.731744,2914.941087 1252.644433,2920.830945"/>
    <poly id="1081356684#1" type="sport" color="79,230,125" fill="1" layer="-2.00" shape="1252.644433,2920.830945 1314.774583,2890.516887 1285.480214,2831.253626 1267.122431,2794.124317 1204.981229,2824.438396 1249.731744,2914.941087 1252.644433,2920.830945"/>
    <poly id="1081356687" type="leisure" color="207,245,201" fill="1" layer="-2.00" shape="1853.034697,2388.052323 1921.934003,2381.416328 1911.514790,2274.528424 1842.615531,2281.153393 1853.034697,2388.052323"/>
    <poly id="1081356687#1" type="sport" color="79,230,125" fill="1" layer="-2.00" shape="1853.034697,2388.052323 1921.934003,2381.416328 1911.514790,2274.528424 1842.615531,2281.153393 1853.034697,2388.052323"/>
    <poly id="1081357981" type="amenity" color="237,199,199" fill="1" layer="-1.00" shape="2110.767857,3234.276867 2096.715510,3229.966096 2096.793146,3223.540073 2110.325492,3204.116902 2124.409553,3213.802797 2117.432956,3224.001397 2113.477812,3232.369763 2110.767857,3234.276867"/>
    <poly id="1081357981#1" type="building" color="255,230,230" fill="1" layer="-1.00" shape="2110.767857,3234.276867 2096.715510,3229.966096 2096.793146,3223.540073 2110.325492,3204.116902 2124.409553,3213.802797 2117.432956,3224.001397 2113.477812,3232.369763 2110.767857,3234.276867"/>
    <poly id="1081357982" type="amenity" color="237,199,199" fill="1" layer="-1.00" shape="2069.004928,3230.435212 2096.793146,3223.540073 2096.715510,3229.966096 2110.767857,3234.276867 2117.389533,3262.457254 2084.364585,3269.848262 2076.763329,3266.333502 2069.004928,3230.435212"/>
    <poly id="1081357982#1" type="building" color="255,230,230" fill="1" layer="-1.00" shape="2069.004928,3230.435212 2096.793146,3223.540073 2096.715510,3229.966096 2110.767857,3234.276867 2117.389533,3262.457254 2084.364585,3269.848262 2076.763329,3266.333502 2069.004928,3230.435212"/>
    <poly id="1081358932" type="amenity" color="237,199,199" fill="1" layer="-1.00" shape="1292.298908,3547.929378 1293.345438,3548.635382 1294.103390,3549.651572 1294.472468,3550.856464 1294.430219,3552.128438 1293.954111,3553.301633 1293.121773,3554.254252 1292.021989,3554.886601 1290.765807,3555.110005 1289.508887,3554.913130 1288.451508,3554.361985 1287.604867,3553.500791 1287.080322,3552.417831 1286.933685,3551.234669 1287.154030,3550.061923 1287.741552,3549.010193 1288.629743,3548.201255 1289.796460,3547.690449 1291.063995,3547.599745 1292.298908,3547.929378"/>
    <poly id="1081358932#1" type="water" color="181,209,209" fill="1" layer="-4.00" shape="1292.298908,3547.929378 1293.345438,3548.635382 1294.103390,3549.651572 1294.472468,3550.856464 1294.430219,3552.128438 1293.954111,3553.301633 1293.121773,3554.254252 1292.021989,3554.886601 1290.765807,3555.110005 1289.508887,3554.913130 1288.451508,3554.361985 1287.604867,3553.500791 1287.080322,3552.417831 1286.933685,3551.234669 1287.154030,3550.061923 1287.741552,3549.010193 1288.629743,3548.201255 1289.796460,3547.690449 1291.063995,3547.599745 1292.298908,3547.929378"/>
    <poly id="1081973650" type="parking" color="184,184,179" fill="1" layer="-1.00" shape="2554.541982,3109.355672 2557.897596,3133.018301 2558.156544,3134.820635 2548.530807,3137.270855 2546.985792,3137.660687 2549.688251,3150.397117 2542.684129,3151.294295 2545.533239,3165.213893 2540.475414,3166.262474 2539.946379,3162.646765 2537.751365,3147.597884 2531.635291,3147.608687 2530.068162,3135.478557 2528.985840,3127.107995 2528.309333,3121.844596 2532.620411,3113.541927 2542.612172,3110.560176 2545.736147,3110.112254 2554.541982,3109.355672"/>
    <poly id="1083557187" type="amenity" color="237,199,199" fill="1" layer="-1.00" shape="1341.167519,2665.764469 1338.067864,2661.058363 1332.448138,2652.408271 1328.567844,2646.431639 1342.184909,2637.272119 1359.166789,2657.117057 1341.167519,2665.764469"/>
    <poly id="1083557187#1" type="building" color="255,230,230" fill="1" layer="-1.00" shape="1341.167519,2665.764469 1338.067864,2661.058363 1332.448138,2652.408271 1328.567844,2646.431639 1342.184909,2637.272119 1359.166789,2657.117057 1341.167519,2665.764469"/>
    <poly id="1083557523" type="parking" color="184,184,179" fill="1" layer="-1.00" shape="1462.124853,2731.480287 1484.620860,2718.909700 1493.020393,2733.748506 1501.263778,2748.322147 1478.767764,2760.892735 1462.124853,2731.480287"/>
    <poly id="1083557524" type="parking" color="184,184,179" fill="1" layer="-1.00" shape="1517.205170,2682.442781 1494.820591,2650.927988 1532.405927,2631.716921 1545.758778,2668.268864 1517.205170,2682.442781"/>
    <poly id="1083558172" type="leisure" color="207,245,201" fill="1" layer="-2.00" shape="2334.769180,1366.003448 2360.460656,1355.882135 2351.694521,1335.071593 2330.138009,1344.245463 2334.526299,1360.728229 2334.769180,1366.003448"/>
    <poly id="1083558172#1" type="sport" color="79,230,125" fill="1" layer="-2.00" shape="2334.769180,1366.003448 2360.460656,1355.882135 2351.694521,1335.071593 2330.138009,1344.245463 2334.526299,1360.728229 2334.769180,1366.003448"/>
    <poly id="108536191" type="amenity" color="237,199,199" fill="1" layer="-1.00" shape="1500.505436,2974.578091 1509.969898,2968.976137 1530.298176,2956.763302 1525.633647,2947.481100 1535.752536,2940.937889 1525.654367,2933.976790 1519.122557,2931.521901 1516.236636,2934.535301 1510.601619,2929.844711 1495.528034,2939.150579 1498.405568,2944.011920 1488.109129,2950.765579 1490.472845,2954.322743 1489.385725,2955.828817 1500.505436,2974.578091"/>
    <poly id="108536191#1" type="building" color="255,230,230" fill="1" layer="-1.00" shape="1500.505436,2974.578091 1509.969898,2968.976137 1530.298176,2956.763302 1525.633647,2947.481100 1535.752536,2940.937889 1525.654367,2933.976790 1519.122557,2931.521901 1516.236636,2934.535301 1510.601619,2929.844711 1495.528034,2939.150579 1498.405568,2944.011920 1488.109129,2950.765579 1490.472845,2954.322743 1489.385725,2955.828817 1500.505436,2974.578091"/>
    <poly id="108536192" type="building" color="255,230,230" fill="1" layer="-1.00" shape="1532.666661,3013.596531 1530.380025,3009.607890 1542.055651,3003.017703 1555.075461,2995.662009 1549.721934,2986.635398 1536.512228,2993.504786 1526.435538,2998.753898 1509.969898,2968.976137 1500.505436,2974.578091 1503.047910,2978.610522 1504.597955,2981.085237 1499.854399,2983.770104 1513.473818,3007.525167 1508.408090,3010.387560 1513.896006,3019.955875 1518.806190,3017.171176 1520.646700,3020.408522 1532.666661,3013.596531"/>
    <poly id="108536194" type="building" color="255,230,230" fill="1" layer="-1.00" shape="1387.701786,2948.431547 1396.188789,2943.461742 1398.452849,2947.262402 1400.672312,2950.996780 1407.470799,2947.014284 1402.373825,2938.429625 1399.295590,2933.258956 1403.727938,2930.663121 1395.407761,2916.675789 1390.742146,2919.415814 1378.339958,2898.567400 1366.187119,2905.689291 1363.298884,2907.386550 1367.514745,2914.479658 1387.701786,2948.431547"/>
    <poly id="108536195" type="building" color="255,230,230" fill="1" layer="-1.00" shape="1351.373931,2923.953278 1360.508275,2939.310619 1371.560966,2957.905168 1387.701786,2948.431547 1367.514745,2914.479658 1351.373931,2923.953278"/>
    <poly id="108536196" type="building" color="255,230,230" fill="1" layer="-1.00" shape="1378.617909,3100.953880 1389.647778,3119.216679 1447.378474,3084.829192 1448.872918,3087.304006 1461.847617,3079.583430 1460.096633,3076.666667 1468.461309,3071.686017 1460.587579,3058.637993 1450.867657,3064.417347 1447.800676,3059.324077 1418.940880,3076.506761 1421.974363,3081.522670 1414.931594,3085.715732 1412.098836,3081.020209 1378.617909,3100.953880"/>
    <poly id="108536197" type="building" color="255,230,230" fill="1" layer="-1.00" shape="1280.125182,2764.438545 1304.273564,2793.561291 1332.266967,2770.662103 1308.118576,2741.539360 1296.492601,2751.049286 1280.125182,2764.438545"/>
    <poly id="108536317" type="building" color="255,230,230" fill="1" layer="-1.00" shape="1381.035383,2856.789032 1401.159909,2855.194176 1419.183042,2853.768912 1418.830460,2849.301290 1429.793321,2848.430384 1429.259025,2841.806381 1380.137389,2845.697430 1381.035383,2856.789032"/>
    <poly id="108574197" type="leisure" color="207,245,201" fill="1" layer="-2.00" shape="1353.719555,2967.824175 1364.406598,2961.866166 1354.121872,2943.657367 1343.434832,2949.615375 1353.719555,2967.824175"/>
    <poly id="108574199" type="parking" color="184,184,179" fill="1" layer="-1.00" shape="1301.120388,3049.406688 1315.038399,3040.611654 1300.843571,3018.439183 1286.925583,3027.245277 1301.120388,3049.406688"/>