<?xml version="1.0" encoding="UTF-8"?>

<!-- generated on 2026-07-13 02:22:01.551783 by Eclipse SUMO randomTrips.py v1.27.1
<configuration>
    <net-file value="cuenca.net.xml"/>
    <output-trip-file value="locales.trips.xml"/>
    <prefix value="lc"/>
    <trip-attributes value="departLane=&quot;best&quot; departSpeed=&quot;max&quot;"/>
    <vehicle-class value="passenger"/>
    <fringe-factor value="1"/>
    <min-distance value="100.0"/>
    <max-distance value="700.0"/>
    <end value="900.0"/>
    <period value="0.8"/>
</configuration>
-->

<routes xmlns:xsi="http://www.w3.org/2001/XMLSchema-instance" xsi:noNamespaceSchemaLocation="http://sumo.dlr.de/xsd/routes_file.xsd">
    <vType id="lc_passenger" vClass="passenger"/>
    <trip id="lc0" depart="0.00" from="47198333#4" to="-301153524" departLane="best" departSpeed="max" type="lc_passenger"/>
    <trip id="lc1" depart="0.80" from="-573216742" to="-310108973#0" departLane="best" departSpeed="max" type="lc_passenger"/>
    <trip id="lc2" depart="1.60" from="59825632#1" to="549589229#0" departLane="best" departSpeed="max" type="lc_passenger"/>
    <trip id="lc3" depart="2.40" from="144175317#1" to="-380635441#7" departLane="best" departSpeed="max" type="lc_passenger"/>
    <trip id="lc4" depart="3.20" from="269103111#4" to="45393802" departLane="best" departSpeed="max" type="lc_passenger"/>
    <trip id="lc5" depart="4.00" from="618284868#0" to="430870741#0" departLane="best" departSpeed="max" type="lc_passenger"/>
    <trip id="lc6" depart="4.80" from="401126212#0" to="-86134869" departLane="best" departSpeed="max" type="lc_passenger"/>
    <trip id="lc7" depart="5.60" from="-48548015#1" to="269103111#1" departLane="best" departSpeed="max" type="lc_passenger"/>
    <trip id="lc8" depart="6.40" from="42140278#0" to="49222379" departLane="best" departSpeed="max" type="lc_passenger"/>
    <trip id="lc9" depart="7.20" from="-48548030" to="84865274#2" departLane="best" departSpeed="max" type="lc_passenger"/>
    <trip id="lc10" depart="8.00" from="445106172" to="48548047" departLane="best" departSpeed="max" type="lc_passenger"/>
    <trip id="lc11" depart="8.80" from="-59829982#5" to="-48548013#1" departLane="best" departSpeed="max" type="lc_passenger"/>
    <trip id="lc12" depart="9.60" from="351440624#5" to="218811762#6" departLane="best" departSpeed="max" type="lc_passenger"/>
    <trip id="lc13" depart="10.40" from="523917171#0" to="45393772#11" departLane="best" departSpeed="max" type="lc_passenger"/>
    <trip id="lc14" depart="11.20" from="49586952#2" to="144175334#2" departLane="best" departSpeed="max" type="lc_passenger"/>
    <trip id="lc15" depart="12.00" from="-1006284720#1" to="250051647#4" departLane="best" departSpeed="max" type="lc_passenger"/>
    <trip id="lc16" depart="12.80" from="46309326#2" to="310108974#2" departLane="best" departSpeed="max" type="lc_passenger"/>
    <trip id="lc17" depart="13.60" from="402781584#0" to="118366336#1" departLane="best" departSpeed="max" type="lc_passenger"/>
    <trip id="lc18" depart="14.40" from="553352498#8" to="49222366#1" departLane="best" departSpeed="max" type="lc_passenger"/>
    <trip id="lc19" depart="15.20" from="492471414" to="42141326#15" departLane="best" departSpeed="max" type="lc_passenger"/>
    <trip id="lc20" depart="16.00" from="340205160#0" to="579372768" departLane="best" departSpeed="max" type="lc_passenger"/>
    <trip id="lc21" depart="16.80" from="42492699#2" to="48853353#2" departLane="best" departSpeed="max" type="lc_passenger"/>
    <trip id="lc22" depart="17.60" from="42141924#2" to="45427996#0" departLane="best" departSpeed="max" type="lc_passenger"/>
    <trip id="lc23" depart="18.40" from="-48202922#2" to="402904478#3" departLane="best" departSpeed="max" type="lc_passenger"/>
    <trip id="lc24" depart="19.20" from="542393521" to="45426145" departLane="best" departSpeed="max" type="lc_passenger"/>
    <trip id="lc25" depart="20.00" from="-45393763#3" to="893239412" departLane="best" departSpeed="max" type="lc_passenger"/>
    <trip id="lc26" depart="20.80" from="542393517#9" to="511167713#0" departLane="best" departSpeed="max" type="lc_passenger"/>
    <trip id="lc27" depart="21.60" from="416637179" to="404316077" departLane="best" departSpeed="max" type="lc_passenger"/>
    <trip id="lc28" depart="22.40" from="410339451#2" to="49577210" departLane="best" departSpeed="max" type="lc_passenger"/>
    <trip id="lc29" depart="23.20" from="42201267#3" to="288084001" departLane="best" departSpeed="max" type="lc_passenger"/>
    <trip id="lc30" depart="24.00" from="48147640#0" to="59829964#1" departLane="best" departSpeed="max" type="lc_passenger"/>
    <trip id="lc31" depart="24.80" from="-48555666#1" to="297776912" departLane="best" departSpeed="max" type="lc_passenger"/>
    <trip id="lc32" depart="25.60" from="645041668#0" to="40668087#0" departLane="best" departSpeed="max" type="lc_passenger"/>
    <trip id="lc33" depart="26.40" from="-403560847" to="86134851#3" departLane="best" departSpeed="max" type="lc_passenger"/>
    <trip id="lc34" depart="27.20" from="48547993#0" to="1472025792" departLane="best" departSpeed="max" type="lc_passenger"/>
    <trip id="lc35" depart="28.00" from="427421010#0" to="48204566#2" departLane="best" departSpeed="max" type="lc_passenger"/>
    <trip id="lc36" depart="28.80" from="336149060#0" to="416636170#2" departLane="best" departSpeed="max" type="lc_passenger"/>
    <trip id="lc37" depart="29.60" from="60204530#0" to="40972457#0" departLane="best" departSpeed="max" type="lc_passenger"/>
    <trip id="lc38" depart="30.40" from="42143918#16" to="42201276#5" departLane="best" departSpeed="max" type="lc_passenger"/>
    <trip id="lc39" depart="31.20" from="86484948#1" to="406209028" departLane="best" departSpeed="max" type="lc_passenger"/>
    <trip id="lc40" depart="32.00" from="48149034#0" to="542402344#0" departLane="best" departSpeed="max" type="lc_passenger"/>
    <trip id="lc41" depart="32.80" from="86484911#0" to="48547994#0" departLane="best" departSpeed="max" type="lc_passenger"/>
    <trip id="lc42" depart="33.60" from="304169507" to="49586897#2" departLane="best" departSpeed="max" type="lc_passenger"/>
    <trip id="lc43" depart="34.40" from="-542393521" to="-400334461#4" departLane="best" departSpeed="max" type="lc_passenger"/>
    <trip id="lc44" depart="35.20" from="402191968#3" to="39525774#1" departLane="best" departSpeed="max" type="lc_passenger"/>
    <trip id="lc45" depart="36.00" from="706479282#1" to="542406428#5" departLane="best" departSpeed="max" type="lc_passenger"/>
    <trip id="lc46" depart="36.80" from="301162182#1" to="380639370#0" departLane="best" departSpeed="max" type="lc_passenger"/>
    <trip id="lc47" depart="37.60" from="-84719883" to="-51972214#1" departLane="best" departSpeed="max" type="lc_passenger"/>
    <trip id="lc48" depart="38.40" from="-144175329#5" to="49586895" departLane="best" departSpeed="max" type="lc_passenger"/>
    <trip id="lc49" depart="39.20" from="-48860950#1" to="-338566787#0" departLane="best" departSpeed="max" type="lc_passenger"/>
    <trip id="lc50" depart="40.00" from="49577742#5" to="410645793" departLane="best" departSpeed="max" type="lc_passenger"/>
    <trip id="lc51" depart="40.80" from="-402762620" to="45429547#0" departLane="best" departSpeed="max" type="lc_passenger"/>
    <trip id="lc52" depart="41.60" from="484829765#4" to="-895455490#5" departLane="best" departSpeed="max" type="lc_passenger"/>
    <trip id="lc53" depart="42.40" from="305214684" to="49577532#0" departLane="best" departSpeed="max" type="lc_passenger"/>
    <trip id="lc54" depart="43.20" from="534903531#2" to="86484909#0" departLane="best" departSpeed="max" type="lc_passenger"/>
    <trip id="lc55" depart="44.00" from="48548015#0" to="404799263" departLane="best" departSpeed="max" type="lc_passenger"/>
    <trip id="lc56" depart="44.80" from="-48860950#4" to="338566787#2" departLane="best" departSpeed="max" type="lc_passenger"/>
    <trip id="lc57" depart="45.60" from="553331430" to="400907052" departLane="best" departSpeed="max" type="lc_passenger"/>
    <trip id="lc58" depart="46.40" from="389741419" to="42141326#9" departLane="best" departSpeed="max" type="lc_passenger"/>
    <trip id="lc59" depart="47.20" from="-48548032#6" to="337277995" departLane="best" departSpeed="max" type="lc_passenger"/>
    <trip id="lc60" depart="48.00" from="267553754#0" to="45393772#12" departLane="best" departSpeed="max" type="lc_passenger"/>
    <trip id="lc61" depart="48.80" from="-485014676#1" to="330169155" departLane="best" departSpeed="max" type="lc_passenger"/>
    <trip id="lc62" depart="49.60" from="311212627#2" to="49586905#1" departLane="best" departSpeed="max" type="lc_passenger"/>
    <trip id="lc63" depart="50.40" from="48548032#5" to="42143234#4" departLane="best" departSpeed="max" type="lc_passenger"/>
    <trip id="lc64" depart="51.20" from="-400672352#0" to="542393521" departLane="best" departSpeed="max" type="lc_passenger"/>
    <trip id="lc65" depart="52.00" from="49586951#0" to="-49586955" departLane="best" departSpeed="max" type="lc_passenger"/>
    <trip id="lc66" depart="52.80" from="49586949#1" to="402915827" departLane="best" departSpeed="max" type="lc_passenger"/>
    <trip id="lc67" depart="53.60" from="-59829982#7" to="895455492" departLane="best" departSpeed="max" type="lc_passenger"/>
    <trip id="lc68" depart="54.40" from="61426871#2" to="534903524#3" departLane="best" departSpeed="max" type="lc_passenger"/>
    <trip id="lc69" depart="55.20" from="144175299#2" to="-336161682#0" departLane="best" departSpeed="max" type="lc_passenger"/>
    <trip id="lc70" depart="56.00" from="399679493" to="-48204566#2" departLane="best" departSpeed="max" type="lc_passenger"/>
    <trip id="lc71" depart="56.80" from="894857846" to="42207965" departLane="best" departSpeed="max" type="lc_passenger"/>
    <trip id="lc72" depart="57.60" from="-345400884#2" to="49578949#0" departLane="best" departSpeed="max" type="lc_passenger"/>
    <trip id="lc73" depart="58.40" from="400006773#1" to="269102410#0" departLane="best" departSpeed="max" type="lc_passenger"/>
    <trip id="lc74" depart="59.20" from="552646975#3" to="49218744" departLane="best" departSpeed="max" type="lc_passenger"/>
    <trip id="lc75" depart="60.00" from="49577752" to="-311212627#0" departLane="best" departSpeed="max" type="lc_passenger"/>
    <trip id="lc76" depart="60.80" from="42140278#0" to="553352498#8" departLane="best" departSpeed="max" type="lc_passenger"/>
    <trip id="lc77" depart="61.60" from="49582157#2" to="40972457#2" departLane="best" departSpeed="max" type="lc_passenger"/>
    <trip id="lc78" depart="62.40" from="305792855#0" to="49586963" departLane="best" departSpeed="max" type="lc_passenger"/>
    <trip id="lc79" depart="63.20" from="398396671" to="48548063" departLane="best" departSpeed="max" type="lc_passenger"/>
    <trip id="lc80" depart="64.00" from="553331426" to="542393800#0" departLane="best" departSpeed="max" type="lc_passenger"/>
    <trip id="lc81" depart="64.80" from="400672356#1" to="49586967" departLane="best" departSpeed="max" type="lc_passenger"/>
    <trip id="lc82" depart="65.60" from="492468579" to="406261770#7" departLane="best" departSpeed="max" type="lc_passenger"/>
    <trip id="lc83" depart="66.40" from="86134852#1" to="-86134876" departLane="best" departSpeed="max" type="lc_passenger"/>
    <trip id="lc84" depart="67.20" from="48548025#1" to="-48548000#1" departLane="best" departSpeed="max" type="lc_passenger"/>
    <trip id="lc85" depart="68.00" from="49577754#2" to="49578946" departLane="best" departSpeed="max" type="lc_passenger"/>
    <trip id="lc86" depart="68.80" from="533567984#1" to="-48904826#1" departLane="best" departSpeed="max" type="lc_passenger"/>
    <trip id="lc87" depart="69.60" from="48908512#4" to="-400334461#1" departLane="best" departSpeed="max" type="lc_passenger"/>
    <trip id="lc88" depart="70.40" from="250024018#1" to="48548010#1" departLane="best" departSpeed="max" type="lc_passenger"/>
    <trip id="lc89" depart="71.20" from="48548010#2" to="338566787#0" departLane="best" departSpeed="max" type="lc_passenger"/>
    <trip id="lc90" depart="72.00" from="767900974#2" to="49586967" departLane="best" departSpeed="max" type="lc_passenger"/>
    <trip id="lc91" depart="72.80" from="567799240#1" to="-437477136" departLane="best" departSpeed="max" type="lc_passenger"/>
    <trip id="lc92" depart="73.60" from="48904784#6" to="645041668#0" departLane="best" departSpeed="max" type="lc_passenger"/>
    <trip id="lc93" depart="74.40" from="59825633" to="-51972215#0" departLane="best" departSpeed="max" type="lc_passenger"/>
    <trip id="lc94" depart="75.20" from="-402944222" to="48548029#2" departLane="best" departSpeed="max" type="lc_passenger"/>
    <trip id="lc95" depart="76.00" from="49217104#0" to="45429540#0" departLane="best" departSpeed="max" type="lc_passenger"/>
    <trip id="lc96" depart="76.80" from="-400672352#4" to="427421010#2" departLane="best" departSpeed="max" type="lc_passenger"/>
    <trip id="lc97" depart="77.60" from="40972457#1" to="511167714#3" departLane="best" departSpeed="max" type="lc_passenger"/>
    <trip id="lc98" depart="78.40" from="492471414" to="552646975#1" departLane="best" departSpeed="max" type="lc_passenger"/>
    <trip id="lc99" depart="79.20" from="335232730#1" to="1127608011#0" departLane="best" departSpeed="max" type="lc_passenger"/>
    <trip id="lc100" depart="80.00" from="641640490" to="48548032#2" departLane="best" departSpeed="max" type="lc_passenger"/>
    <trip id="lc101" depart="80.80" from="542393508#0" to="-45393762#1" departLane="best" departSpeed="max" type="lc_passenger"/>
    <trip id="lc102" depart="81.60" from="42143918#16" to="49578944" departLane="best" departSpeed="max" type="lc_passenger"/>
    <trip id="lc103" depart="82.40" from="47198334#9" to="405025248#1" departLane="best" departSpeed="max" type="lc_passenger"/>
    <trip id="lc104" depart="83.20" from="337480460#0" to="542393514#1" departLane="best" departSpeed="max" type="lc_passenger"/>
    <trip id="lc105" depart="84.00" from="-144175366" to="49589773" departLane="best" departSpeed="max" type="lc_passenger"/>
    <trip id="lc106" depart="84.80" from="400334461#2" to="-335232729#5" departLane="best" departSpeed="max" type="lc_passenger"/>
    <trip id="lc107" depart="85.60" from="554582106#9" to="42492699#7" departLane="best" departSpeed="max" type="lc_passenger"/>
    <trip id="lc108" depart="86.40" from="-484829766" to="894857833" departLane="best" departSpeed="max" type="lc_passenger"/>
    <trip id="lc109" depart="87.20" from="767900975#0" to="380635441#2" departLane="best" departSpeed="max" type="lc_passenger"/>
    <trip id="lc110" depart="88.00" from="48548020" to="48548001#0" departLane="best" departSpeed="max" type="lc_passenger"/>
    <trip id="lc111" depart="88.80" from="-402915810" to="47198334#1" departLane="best" departSpeed="max" type="lc_passenger"/>
    <trip id="lc112" depart="89.60" from="48908522#4" to="300393828" departLane="best" departSpeed="max" type="lc_passenger"/>
    <trip id="lc113" depart="90.40" from="-402912986" to="560354132" departLane="best" departSpeed="max" type="lc_passenger"/>
    <trip id="lc114" depart="91.20" from="-49582159" to="300070733#7" departLane="best" departSpeed="max" type="lc_passenger"/>
    <trip id="lc115" depart="92.00" from="-61426871#4" to="338566781#0" departLane="best" departSpeed="max" type="lc_passenger"/>
    <trip id="lc116" depart="92.80" from="-424074247" to="427421010#1" departLane="best" departSpeed="max" type="lc_passenger"/>
    <trip id="lc117" depart="93.60" from="-248268266#5" to="-47652008#2" departLane="best" departSpeed="max" type="lc_passenger"/>
    <trip id="lc118" depart="94.40" from="-48904813#2" to="48555671" departLane="best" departSpeed="max" type="lc_passenger"/>
    <trip id="lc119" depart="95.20" from="533567980" to="404994777#0" departLane="best" departSpeed="max" type="lc_passenger"/>
    <trip id="lc120" depart="96.00" from="-402904470" to="-305928327" departLane="best" departSpeed="max" type="lc_passenger"/>
    <trip id="lc121" depart="96.80" from="48909342#7" to="49577742#0" departLane="best" departSpeed="max" type="lc_passenger"/>
    <trip id="lc122" depart="97.60" from="49586984#1" to="400332929" departLane="best" departSpeed="max" type="lc_passenger"/>
    <trip id="lc123" depart="98.40" from="249653686#3" to="48860950#11" departLane="best" departSpeed="max" type="lc_passenger"/>
    <trip id="lc124" depart="99.20" from="48548018#0" to="-45393770#1" departLane="best" departSpeed="max" type="lc_passenger"/>
    <trip id="lc125" depart="100.00" from="40972468#0" to="-86484922#0" departLane="best" departSpeed="max" type="lc_passenger"/>
    <trip id="lc126" depart="100.80" from="269103111#3" to="45393762#2" departLane="best" departSpeed="max" type="lc_passenger"/>
    <trip id="lc127" depart="101.60" from="1446124611#1" to="552619450" departLane="best" departSpeed="max" type="lc_passenger"/>
    <trip id="lc128" depart="102.40" from="45429543#6" to="40668087#3" departLane="best" departSpeed="max" type="lc_passenger"/>
    <trip id="lc129" depart="103.20" from="-49586931#3" to="49586981" departLane="best" departSpeed="max" type="lc_passenger"/>
    <trip id="lc130" depart="104.00" from="416636168" to="371275445" departLane="best" departSpeed="max" type="lc_passenger"/>
    <trip id="lc131" depart="104.80" from="48853353#0" to="48859311" departLane="best" departSpeed="max" type="lc_passenger"/>
    <trip id="lc132" depart="105.60" from="-48549010" to="815723565#1" departLane="best" departSpeed="max" type="lc_passenger"/>
    <trip id="lc133" depart="106.40" from="-405172711" to="445106173#0" departLane="best" departSpeed="max" type="lc_passenger"/>
    <trip id="lc134" depart="107.20" from="400017959" to="45393817#0" departLane="best" departSpeed="max" type="lc_passenger"/>
    <trip id="lc135" depart="108.00" from="48904817" to="-47198334#8" departLane="best" departSpeed="max" type="lc_passenger"/>
    <trip id="lc136" depart="108.80" from="553352498#8" to="42140278#0" departLane="best" departSpeed="max" type="lc_passenger"/>
    <trip id="lc137" depart="109.60" from="86134881#2" to="-406996047#0" departLane="best" departSpeed="max" type="lc_passenger"/>
    <trip id="lc138" depart="110.40" from="-86134883#1" to="300309586" departLane="best" departSpeed="max" type="lc_passenger"/>
    <trip id="lc139" depart="111.20" from="42492699#6" to="-49577731#1" departLane="best" departSpeed="max" type="lc_passenger"/>
    <trip id="lc140" depart="112.00" from="-48552361#1" to="402915813#0" departLane="best" departSpeed="max" type="lc_passenger"/>
    <trip id="lc141" depart="112.80" from="144175329#2" to="144175329#6" departLane="best" departSpeed="max" type="lc_passenger"/>
    <trip id="lc142" depart="113.60" from="895065309" to="-306725311#1" departLane="best" departSpeed="max" type="lc_passenger"/>
    <trip id="lc143" depart="114.40" from="-208781832#1" to="-400672352#1" departLane="best" departSpeed="max" type="lc_passenger"/>
    <trip id="lc144" depart="115.20" from="-311212627#2" to="402904470" departLane="best" departSpeed="max" type="lc_passenger"/>
    <trip id="lc145" depart="116.00" from="552479285" to="-311202507#1" departLane="best" departSpeed="max" type="lc_passenger"/>
    <trip id="lc146" depart="116.80" from="49586910#1" to="49586924#4" departLane="best" departSpeed="max" type="lc_passenger"/>
    <trip id="lc147" depart="117.60" from="492471759#3" to="992504607" departLane="best" departSpeed="max" type="lc_passenger"/>
    <trip id="lc148" depart="118.40" from="49586984#0" to="60204532#11" departLane="best" departSpeed="max" type="lc_passenger"/>
    <trip id="lc149" depart="119.20" from="-48555667#10" to="552654735#1" departLane="best" departSpeed="max" type="lc_passenger"/>
    <trip id="lc150" depart="120.00" from="47198333#2" to="552667592#0" departLane="best" departSpeed="max" type="lc_passenger"/>
    <trip id="lc151" depart="120.80" from="144175329#3" to="380635441#7" departLane="best" departSpeed="max" type="lc_passenger"/>
    <trip id="lc152" depart="121.60" from="305792855#1" to="400672352#4" departLane="best" departSpeed="max" type="lc_passenger"/>
    <trip id="lc153" depart="122.40" from="400335421" to="-404994775" departLane="best" departSpeed="max" type="lc_passenger"/>
    <trip id="lc154" depart="123.20" from="325344180#1" to="380635441#6" departLane="best" departSpeed="max" type="lc_passenger"/>
    <trip id="lc155" depart="124.00" from="-972644143" to="-48904784#7" departLane="best" departSpeed="max" type="lc_passenger"/>
    <trip id="lc156" depart="124.80" from="542417200#6" to="-48555668#0" departLane="best" departSpeed="max" type="lc_passenger"/>
    <trip id="lc157" depart="125.60" from="338566786#10" to="485164523" departLane="best" departSpeed="max" type="lc_passenger"/>
    <trip id="lc158" depart="126.40" from="49222379" to="543403942#0" departLane="best" departSpeed="max" type="lc_passenger"/>
    <trip id="lc159" depart="127.20" from="59829982#7" to="48860950#4" departLane="best" departSpeed="max" type="lc_passenger"/>
    <trip id="lc160" depart="128.00" from="-84719901#3" to="49586968#1" departLane="best" departSpeed="max" type="lc_passenger"/>
    <trip id="lc161" depart="128.80" from="47638127" to="400006774#1" departLane="best" departSpeed="max" type="lc_passenger"/>
    <trip id="lc162" depart="129.60" from="48147639#1" to="45429565#1" departLane="best" departSpeed="max" type="lc_passenger"/>
    <trip id="lc163" depart="130.40" from="-86222254" to="48904784#6" departLane="best" departSpeed="max" type="lc_passenger"/>
    <trip id="lc164" depart="131.20" from="-301180647#2" to="48904779#0" departLane="best" departSpeed="max" type="lc_passenger"/>
    <trip id="lc165" depart="132.00" from="48904813#0" to="-895265101#0" departLane="best" departSpeed="max" type="lc_passenger"/>
    <trip id="lc166" depart="132.80" from="560354132" to="48548032#6" departLane="best" departSpeed="max" type="lc_passenger"/>
    <trip id="lc167" depart="133.60" from="49586949#0" to="49577533" departLane="best" departSpeed="max" type="lc_passenger"/>
    <trip id="lc168" depart="134.40" from="49577746#1" to="404994770#0" departLane="best" departSpeed="max" type="lc_passenger"/>
    <trip id="lc169" depart="135.20" from="-403123152#0" to="47198304" departLane="best" departSpeed="max" type="lc_passenger"/>
    <trip id="lc170" depart="136.00" from="48904817" to="-48555666#5" departLane="best" departSpeed="max" type="lc_passenger"/>
    <trip id="lc171" depart="136.80" from="40972470" to="-338566780#0" departLane="best" departSpeed="max" type="lc_passenger"/>
    <trip id="lc172" depart="137.60" from="895455492" to="48548010#0" departLane="best" departSpeed="max" type="lc_passenger"/>
    <trip id="lc173" depart="138.40" from="311212628#8" to="42201279#1" departLane="best" departSpeed="max" type="lc_passenger"/>
    <trip id="lc174" depart="139.20" from="48503910#0" to="1498937510#0" departLane="best" departSpeed="max" type="lc_passenger"/>
    <trip id="lc175" depart="140.00" from="45393772#6" to="-48859304#1" departLane="best" departSpeed="max" type="lc_passenger"/>
    <trip id="lc176" depart="140.80" from="400017963#0" to="-45427996#0" departLane="best" departSpeed="max" type="lc_passenger"/>
    <trip id="lc177" depart="141.60" from="59830979" to="-485182262#0" departLane="best" departSpeed="max" type="lc_passenger"/>
    <trip id="lc178" depart="142.40" from="406209024" to="48859314#1" departLane="best" departSpeed="max" type="lc_passenger"/>
    <trip id="lc179" depart="143.20" from="-311305706#5" to="-49586931#2" departLane="best" departSpeed="max" type="lc_passenger"/>
    <trip id="lc180" depart="144.00" from="338566780#1" to="61426872#2" departLane="best" departSpeed="max" type="lc_passenger"/>
    <trip id="lc181" depart="144.80" from="400672356#1" to="40972457#1" departLane="best" departSpeed="max" type="lc_passenger"/>
    <trip id="lc182" depart="145.60" from="338426546#1" to="48859295#5" departLane="best" departSpeed="max" type="lc_passenger"/>
    <trip id="lc183" depart="146.40" from="45427994#1" to="264452213#10" departLane="best" departSpeed="max" type="lc_passenger"/>
    <trip id="lc184" depart="147.20" from="533567977#0" to="48555667#3" departLane="best" departSpeed="max" type="lc_passenger"/>
    <trip id="lc185" depart="148.00" from="49577749" to="548317336#0" departLane="best" departSpeed="max" type="lc_passenger"/>
    <trip id="lc186" depart="148.80" from="370601722#0" to="42453874#0" departLane="best" departSpeed="max" type="lc_passenger"/>
    <trip id="lc187" depart="149.60" from="264452213#4" to="334968591#2" departLane="best" departSpeed="max" type="lc_passenger"/>
    <trip id="lc188" depart="150.40" from="334948975#0" to="48548001#0" departLane="best" departSpeed="max" type="lc_passenger"/>
    <trip id="lc189" depart="151.20" from="49582171#1" to="42201277#4" departLane="best" departSpeed="max" type="lc_passenger"/>
    <trip id="lc190" depart="152.00" from="47861236" to="410645790" departLane="best" departSpeed="max" type="lc_passenger"/>
    <trip id="lc191" depart="152.80" from="-48548043" to="-894857823" departLane="best" departSpeed="max" type="lc_passenger"/>
    <trip id="lc192" depart="153.60" from="-48904797#0" to="49586946#1" departLane="best" departSpeed="max" type="lc_passenger"/>
    <trip id="lc193" depart="154.40" from="61426879#0" to="895455491" departLane="best" departSpeed="max" type="lc_passenger"/>
    <trip id="lc194" depart="155.20" from="-405025242#1" to="47198334#4" departLane="best" departSpeed="max" type="lc_passenger"/>
    <trip id="lc195" depart="156.00" from="398532019#0" to="47198330#0" departLane="best" departSpeed="max" type="lc_passenger"/>
    <trip id="lc196" depart="156.80" from="42201276#3" to="336149058#1" departLane="best" departSpeed="max" type="lc_passenger"/>
    <trip id="lc197" depart="157.60" from="-1181517043" to="118664608" departLane="best" departSpeed="max" type="lc_passenger"/>
    <trip id="lc198" depart="158.40" from="45393777#0" to="542393509#1" departLane="best" departSpeed="max" type="lc_passenger"/>
    <trip id="lc199" depart="159.20" from="42143918#13" to="42201276#5" departLane="best" departSpeed="max" type="lc_passenger"/>
    <trip id="lc200" depart="160.00" from="249653686#4" to="48860950#10" departLane="best" departSpeed="max" type="lc_passenger"/>
    <trip id="lc201" depart="160.80" from="-336161682#2" to="144175303#0" departLane="best" departSpeed="max" type="lc_passenger"/>
    <trip id="lc202" depart="161.60" from="542406424#0" to="406976393" departLane="best" departSpeed="max" type="lc_passenger"/>
    <trip id="lc203" depart="162.40" from="-445106174#1" to="404261128" departLane="best" departSpeed="max" type="lc_passenger"/>
    <trip id="lc204" depart="163.20" from="-48555667#6" to="-311212627#4" departLane="best" departSpeed="max" type="lc_passenger"/>
    <trip id="lc205" depart="164.00" from="334948975#0" to="45393784#2" departLane="best" departSpeed="max" type="lc_passenger"/>
    <trip id="lc206" depart="164.80" from="400008036#0" to="45393787#2" departLane="best" departSpeed="max" type="lc_passenger"/>
    <trip id="lc207" depart="165.60" from="-400334461#4" to="62203283#1" departLane="best" departSpeed="max" type="lc_passenger"/>
    <trip id="lc208" depart="166.40" from="400335422#0" to="334122580#1" departLane="best" departSpeed="max" type="lc_passenger"/>
    <trip id="lc209" depart="167.20" from="-335232729#5" to="49586946#0" departLane="best" departSpeed="max" type="lc_passenger"/>
    <trip id="lc210" depart="168.00" from="42201283" to="542395213#2" departLane="best" departSpeed="max" type="lc_passenger"/>
    <trip id="lc211" depart="168.80" from="118664609#0" to="144175339#0" departLane="best" departSpeed="max" type="lc_passenger"/>
    <trip id="lc212" depart="169.60" from="417420848#2" to="175493669" departLane="best" departSpeed="max" type="lc_passenger"/>
    <trip id="lc213" depart="170.40" from="39503440#2" to="336161682#2" departLane="best" departSpeed="max" type="lc_passenger"/>
    <trip id="lc214" depart="171.20" from="400335423#0" to="-144175315" departLane="best" departSpeed="max" type="lc_passenger"/>
    <trip id="lc215" depart="172.00" from="48548032#0" to="250033168#2" departLane="best" departSpeed="max" type="lc_passenger"/>
    <trip id="lc216" depart="172.80" from="400334461#1" to="45394215#2" departLane="best" departSpeed="max" type="lc_passenger"/>
    <trip id="lc217" depart="173.60" from="48548052" to="334968122#2" departLane="best" departSpeed="max" type="lc_passenger"/>
    <trip id="lc218" depart="174.40" from="-48150230#0" to="558930374" departLane="best" departSpeed="max" type="lc_passenger"/>
    <trip id="lc219" depart="175.20" from="42195044#9" to="65107406#0" departLane="best" departSpeed="max" type="lc_passenger"/>
    <trip id="lc220" depart="176.00" from="48853354#0" to="511167714#4" departLane="best" departSpeed="max" type="lc_passenger"/>
    <trip id="lc221" depart="176.80" from="301153753" to="402762623#0" departLane="best" departSpeed="max" type="lc_passenger"/>
    <trip id="lc222" depart="177.60" from="42201267#3-AddedOffRampEdge" to="-86134869" departLane="best" departSpeed="max" type="lc_passenger"/>
    <trip id="lc223" depart="178.40" from="-86134851#4" to="86134851#1" departLane="best" departSpeed="max" type="lc_passenger"/>
    <trip id="lc224" depart="179.20" from="542395222#2" to="-269103127#2" departLane="best" departSpeed="max" type="lc_passenger"/>
    <trip id="lc225" depart="180.00" from="59829982#7" to="48963740#2" departLane="best" departSpeed="max" type="lc_passenger"/>
    <trip id="lc226" depart="180.80" from="42207956#1" to="-404579648" departLane="best" departSpeed="max" type="lc_passenger"/>