<?xml version="1.0" encoding="UTF-8"?>

<!-- generated on 2026-07-13 02:22:03.121200 by Eclipse SUMO randomTrips.py v1.27.1
<configuration>
    <net-file value="cuenca.net.xml"/>
    <output-trip-file value="locales.trips.xml"/>
    <prefix value="lc"/>
    <trip-attributes value="departLane=&quot;best&quot; departSpeed=&quot;max&quot;"/>
    <vehicle-class value="passenger"/>
    <fringe-factor value="1"/>
    <min-distance value="100.0"/>
    <max-distance value="700.0"/>
    <end value="900.0"/>
    <period value="0.8"/>
</configuration>
-->

<!-- generated on 2026-07-13T02:22:02.536942-05:00 by Eclipse SUMO duarouter 1.27.1
<duarouterConfiguration xmlns:xsi="http://www.w3.org/2001/XMLSchema-instance" xsi:noNamespaceSchemaLocation="http://sumo.dlr.de/xsd/duarouterConfiguration.xsd">

    <input>
        <net-file value="cuenca.net.xml"/>
        <route-files value="locales.trips.xml"/>
    </input>

    <output>
        <output-file value="routes.rou.xml"/>
        <alternatives-output value="NUL"/>
    </output>

    <processing>
        <routing-threads value="2"/>
    </processing>

    <time>
        <begin value="0.0"/>
        <end value="900.0"/>
    </time>

    <report>
        <no-warnings value="true"/>
        <ignore-errors value="true"/>
        <no-step-log value="true"/>
    </report>

</duarouterConfiguration>
-->

<routes xmlns:xsi="http://www.w3.org/2001/XMLSchema-instance" xsi:noNamespaceSchemaLocation="http://sumo.dlr.de/xsd/routes_file.xsd">
    <vType id="lc_passenger" vClass="passenger"/>
    <vehicle id="lc0" type="lc_passenger" depart="0.00" departLane="best" departSpeed="max">
        <route edges="47198333#4 311212628#0 311212628#1 311212628#2 49577740 301153524 -305928327 305928327 -301153524"/>
    </vehicle>
    <vehicle id="lc1" type="lc_passenger" depart="0.80" departLane="best" departSpeed="max">
        <route edges="-573216742 573216739#2 250034429 -403123152#4 -403123152#3 -271044649#1 -271044649#0 -59829981#0 -895455491 406209028 40972466#11 427719631#0 45424968#0 403123148#0 338566786#0 338566786#1 48548010#0 48548010#1 48548014#1 48548014#2 48860950#4 48860950#5 48860950#6 48860950#9 48860950#10 48860950#11 -310108973#2 -310108973#0"/>
    </vehicle>
    <vehicle id="lc2" type="lc_passenger" depart="1.60" departLane="best" departSpeed="max">
        <route edges="59825632#1 59825632#2 59825627#1 59825628#0 59825628#1 -549589229#3 -549589229#1 -549589229#0 549589229#0"/>
    </vehicle>
    <vehicle id="lc3" type="lc_passenger" depart="2.40" departLane="best" departSpeed="max">
        <route edges="144175317#1 -144175329#2 -144175329#1 144175334#4 334122581 400332929 46228068 549589231#3 549589231#4 549589231#5 549589231#6 46228069 400332925#0 42207982#0 42207982#2 -400335425#1 -400335425#0 -335232729#5 -335232729#4 -335232729#3 380635441#1 380635441#2 380635441#3 380635441#6 380635441#7 -380635441#7"/>
    </vehicle>
    <vehicle id="lc4" type="lc_passenger" depart="3.20" departLane="best" departSpeed="max">
        <route edges="269103111#4 40972460#2 40972460#3 40972460#4 40972460#5 40972460#6 40972460#7 40972460#8 40972463#0 40972463#3 40972463#4 400006773#0 400006773#1 400006773#2 400006773#3 400006773#4 45393802"/>
    </vehicle>
    <vehicle id="lc5" type="lc_passenger" depart="4.00" departLane="best" departSpeed="max">
        <route edges="618284868#0 542435213 -554134453 -48502727 48502728 48502734#1 48502725 -1515700238#3 -1515700238#2 -542434375#2 430870741#0"/>
    </vehicle>
    <vehicle id="lc6" type="lc_passenger" depart="4.80" departLane="best" departSpeed="max">
        <route edges="401126212#0 766389709 79793742 46228461#1 47198314 47198313 895742359 300304414#3 300304414#4 300304414#5 300304414#6 300304414#7 300304414#0 300309586 337277995 300314902#0 65107402#2 65107402#3 549589230#0 86134883#0 86134883#1 86134869 -86134869"/>
    </vehicle>
    <vehicle id="lc7" type="lc_passenger" depart="5.60" departLane="best" departSpeed="max">
        <route edges="-48548015#1 48548014#2 -48860950#3 -48860950#2 -48860950#1 -48860950#0 42454301#5 542407411 542407410#0 269103109 45424962#7 895065309 269103111#0 269103111#1"/>
    </vehicle>
    <vehicle id="lc8" type="lc_passenger" depart="6.40" departLane="best" departSpeed="max">
        <route edges="42140278#0 42140278#1 49222372#0 42207931 49217114#0 49217114#1 399278568 49222378 49222379"/>
    </vehicle>
    <vehicle id="lc9" type="lc_passenger" depart="7.20" departLane="best" departSpeed="max">
        <route edges="-48548030 86484924#0 86484924#2 48548056#5 549778902#0 549778902#1 249653686#2 46309326#0 46309326#1 340205160#1 641640490 48549795 946936882 400264794 84865274#0 84865274#1 84865274#2"/>
    </vehicle>
    <vehicle id="lc10" type="lc_passenger" depart="8.00" departLane="best" departSpeed="max">
        <route edges="445106172 404261124#0 404261124#1 59825628#1 1055114601#0 1055114601#2 42143231 1432098755#1 65141891#0 42207971 337277998#0 310108974#0 48548047"/>
    </vehicle>
    <vehicle id="lc11" type="lc_passenger" depart="8.80" departLane="best" departSpeed="max">
        <route edges="-59829982#5 -59829982#4 -59829982#3 -59829982#2 -59829982#1 895455492 48147639#0 48147639#1 40972466#9 40972466#10 40972466#11 427719631#0 45424968#0 403123148#0 338566786#0 338566786#1 48548010#0 48548013#0 48548013#1 -48548013#1"/>
    </vehicle>
    <vehicle id="lc12" type="lc_passenger" depart="9.60" departLane="best" departSpeed="max">
        <route edges="351440624#5 351440624#7 351440624#9 337277957#3 337277957#4 337277957#6 337277957#8 40668086#0 40668086#1 40668086#2 40668086#3 42207927#0 42207927#2 42207927#3 218811762#6"/>
    </vehicle>
    <vehicle id="lc13" type="lc_passenger" depart="10.40" departLane="best" departSpeed="max">
        <route edges="523917171#0 523917171#1 523917171#2 48859304#0 45393772#7 45393772#8 45393772#9 45393772#10 45393772#11"/>
    </vehicle>
    <vehicle id="lc14" type="lc_passenger" depart="11.20" departLane="best" departSpeed="max">
        <route edges="49586952#2 300070733#7 49586965#0 49586965#1 49586965#2 300070731#1 300070731#2 300070731#3 400334460#1 336161682#0 336161682#1 400335425#0 400335425#1 303122899#0 48908513 549589231#1 48553746 -334122581 -144175334#5 -144175334#3 -144175334#2 144175334#2"/>
    </vehicle>
    <vehicle id="lc15" type="lc_passenger" depart="12.00" departLane="best" departSpeed="max">
        <route edges="-1006284720#1 1006284720#1 250051647#0 250051647#3 250051647#4"/>
    </vehicle>
    <vehicle id="lc16" type="lc_passenger" depart="12.80" departLane="best" departSpeed="max">
        <route edges="46309326#2 48548077 46309330#0 45427982 249653686#0 249653686#1 249653686#2 249653686#3 249653686#4 946937430#1 946937430#2 946937430#3 86484911#0 -310108974#7 -310108974#3 -310108974#2 310108974#2"/>
    </vehicle>
    <vehicle id="lc17" type="lc_passenger" depart="13.60" departLane="best" departSpeed="max">
        <route edges="402781584#0 402781584#1 402781584#2 49577738 45394214 45394213#5 311212628#0 45394212#0 45394212#1 45394212#2 45394212#3 45394212#5 45394212#6 305791291#0 45421575#0 45421575#2 118366336#1"/>
    </vehicle>
    <vehicle id="lc18" type="lc_passenger" depart="14.40" departLane="best" departSpeed="max">
        <route edges="553352498#8 567060342#0 1053072563 42141326#16 42141326#17 49217116#0 49217116#1 49217104#1 49222366#0 49222366#1"/>
    </vehicle>
    <vehicle id="lc19" type="lc_passenger" depart="15.20" departLane="best" departSpeed="max">
        <route edges="492471414 492471759#0 492471759#3 492471759#4 42141326#14 42141326#15"/>
    </vehicle>
    <vehicle id="lc20" type="lc_passenger" depart="16.00" departLane="best" departSpeed="max">
        <route edges="340205160#0 46309326#2 48548077 46309330#0 45427982 549778903 -269103122#7 -269103122#5 48547994#0 48547994#1 1006284719 48548056#2 48548052 542406424#0 -310108973#5 -579372768 579372768"/>
    </vehicle>
    <vehicle id="lc21" type="lc_passenger" depart="16.80" departLane="best" departSpeed="max">
        <route edges="42492699#2 42195044#4 42201276#3 42201276#5 42201276#6 42201276#7 554582106#13 49222366#9 42201282#0 48853358 42201275#0 42453883#6 42453883#7 42453883#8 42453883#9 42453883#1 42453883#2 42453883#3 42453883#4 48853354#0 48853353#0 48853353#2"/>
    </vehicle>
    <vehicle id="lc22" type="lc_passenger" depart="17.60" departLane="best" departSpeed="max">
        <route edges="42141924#2 549772918#0 42136869#2 400017953#0 400017953#1 400017956 400017957#0 893234901 893234900 893234898 48859295#0 48859295#1 48859295#2 48859295#3 45427996#0"/>
    </vehicle>
    <vehicle id="lc23" type="lc_passenger" depart="18.40" departLane="best" departSpeed="max">
        <route edges="-48202922#2 48202922#0 47861233 47861236 47861237 389741418 559164160 40972457#0 40972457#1 40972457#2 40972457#3 402904478#0 402904478#3"/>
    </vehicle>
    <vehicle id="lc24" type="lc_passenger" depart="19.20" departLane="best" departSpeed="max">
        <route edges="542393521 49582153#0 49582153#1 374506937#6 552667591#3 552667591#4 402904478#0 402904478#3 400328791#0 552667594#0 42453876#3 42453876#4 42453876#5 65107381 65107389 305497107 40972452#6 40972452#7 40972452#1 40972452#2 40972452#3 40972452#4 40972456 45426145"/>
    </vehicle>
    <vehicle id="lc25" type="lc_passenger" depart="20.00" departLane="best" departSpeed="max">
        <route edges="-45393763#3 552506221#0 552506221#1 45393809#0 45393809#2 45393809#3 45393772#13 552506218#3 893239412"/>
    </vehicle>
    <vehicle id="lc26" type="lc_passenger" depart="20.80" departLane="best" departSpeed="max">
        <route edges="542393517#9 49582168#0 49582168#1 49582158#4 511167713#0"/>
    </vehicle>
    <vehicle id="lc27" type="lc_passenger" depart="21.60" departLane="best" departSpeed="max">
        <route edges="416637179 523917861#1 523917861#2 269102910 545148169#1 45429565#2 552506216 552506215#0 42207965 427719632#1 40972466#1 40972466#2 40972466#3 304102912 875629476 304102914 338566781#0 338566781#2 61426879#0 86484930#0 404316077"/>
    </vehicle>
    <vehicle id="lc28" type="lc_passenger" depart="22.40" departLane="best" departSpeed="max">
        <route edges="410339451#2 -301180647#2 -301180647#0 1127608011#0 1127608011#1 48909345#5 48909345#6 48909345#7 48909345#8 48909345#1 48908522#0 48555667#0 48555667#2 48555667#3 -47198334#4 -47198334#3 -49577209 -49577210 49577210"/>
    </vehicle>
    <vehicle id="lc29" type="lc_passenger" depart="23.20" departLane="best" departSpeed="max">
        <route edges="42201267#3 42201267#3-AddedOffRampEdge 398525662#0 398525662#1 552715042#4 552715042#5 552715042#1 558928270 49834388#1 144175304 552440203#2 552440202 48503910#0-AddedOnRampEdge 48503910#0 48503910#1-AddedOnRampEdge 48503910#1 552457156#0 605637262#1 31247276 405172711 -59829986#1 288084001"/>
    </vehicle>
    <vehicle id="lc30" type="lc_passenger" depart="24.00" departLane="best" departSpeed="max">
        <route edges="48147640#0 48147640#2 48147640#3 61654221#0 61654221#1 48553745 605637262#7 605637262#8 605637262#1 605637262#2 605637262#3 42201266#0 42201266#2 -84719882#3 445106174#0 445106174#1 533204237#0 59825631#1 59829964#1"/>
    </vehicle>
    <vehicle id="lc31" type="lc_passenger" depart="24.80" departLane="best" departSpeed="max">
        <route edges="-48555666#1 48555666#1 47198334#2 47198334#3 47198334#4 -48555667#3 -48555667#2 -48555667#1 48909343#9 48909345#3 48908510#0 48908510#2 48908510#3 301180647#0 301180647#1 311305706#0 297776912"/>
    </vehicle>
    <vehicle id="lc32" type="lc_passenger" depart="25.60" departLane="best" departSpeed="max">
        <route edges="645041668#0 645041668#3 605352060#0 605352052#5 605352052#6 605352052#1 605352057 605352056#0 605352056#1 972644144#0 972644144#3 972644144#4 65107406#0 1515700239#2 1515700239#3 48500734#11 48500734#12 48500734#13 48500734#2 303057278 48202930 48202929#0 48202921 894151134#0 40668087#0"/>
    </vehicle>
    <vehicle id="lc33" type="lc_passenger" depart="26.40" departLane="best" departSpeed="max">
        <route edges="-403560847 403560846#2 398525662#1 552715042#4 552715042#5 552715042#1 558928270 49834388#1 79793743#0 333179949 766389709 79793742 46228461#1 542395228 401126213 1245299618 333201391#0 40972450#5 40972450#8 40972450#1 40972450#2 40972450#3 48499885#0 48499882#1 79793741#3 86134851#0 86134851#1 86134851#3"/>
    </vehicle>
    <vehicle id="lc34" type="lc_passenger" depart="27.20" departLane="best" departSpeed="max">
        <route edges="48547993#0 48548017 48548018#1 542407411 542407410#0 269103109 45424962#7 45424962#8 45424962#1 427931811 311202507#0 534903524#0 534903524#2 1472025792"/>
    </vehicle>
    <vehicle id="lc35" type="lc_passenger" depart="28.00" departLane="best" departSpeed="max">
        <route edges="427421010#0 48909342#9 48909342#10 48909342#11 -48202921 -48202929#1 -48202930 416775490#0 48500734#5 48500734#6 48501815#0 48501815#2 48501815#3 48501815#4 542434373 430870741#0 48204566#0 48204566#2"/>
    </vehicle>
    <vehicle id="lc36" type="lc_passenger" depart="28.80" departLane="best" departSpeed="max">
        <route edges="336149060#0 304169507 336149062 208782596#0 208782596#2 40972452#3 40972452#4 40972452#5 40972452#6 40972452#7 40972452#1 305497106#0 400264793 303119547#0 303119547#1 330169155 330169157 42207980#0 48547991#0 416636170#1 416636170#2"/>
    </vehicle>
    <vehicle id="lc37" type="lc_passenger" depart="29.60" departLane="best" departSpeed="max">
        <route edges="60204530#0 -60204530#2 559164160 40972457#0"/>
    </vehicle>
    <vehicle id="lc38" type="lc_passenger" depart="30.40" departLane="best" departSpeed="max">
        <route edges="42143918#16 48202922#0 893240697 42201276#0 42201276#2 42201276#3 42201276#5"/>
    </vehicle>
    <vehicle id="lc39" type="lc_passenger" depart="31.20" departLane="best" departSpeed="max">
        <route edges="86484948#1 -311652835#1 -311652835#0 -338566781#2 -338566781#0 -304102914 304102915 40972466#5 40972466#6 40972466#7 40972466#8 40972466#9 552440200#0 552440200#1 895455491 -895455491 406209028"/>
    </vehicle>
    <vehicle id="lc40" type="lc_passenger" depart="32.00" departLane="best" departSpeed="max">
        <route edges="48149034#0 48149034#1 542395213#0 542395213#2 542395222#0 542395222#2 542402350 475886425#0 475886425#2 542397044#0 542402347#4 542402347#6 542402344#0"/>
    </vehicle>
    <vehicle id="lc41" type="lc_passenger" depart="32.80" departLane="best" departSpeed="max">
        <route edges="86484911#0 -310108974#7 -310108974#3 -310108974#2 -310108974#1 -310108974#0 310108973#0 310108973#2 310108973#4 310108973#5 48547986#0 48547986#1 48547986#2 48547986#3 269103122#4 48547994#0"/>
    </vehicle>
    <vehicle id="lc42" type="lc_passenger" depart="33.60" departLane="best" departSpeed="max">
        <route edges="304169507 336149062 208782596#0 208782596#2 40972452#3 40972452#4 40972456 45426145 42453876#7 42453876#8 42453876#1 542393517#0 542393517#3 542393517#6 542393517#9 552667592#0 552667592#3 552667592#4 552667592#5 542393521 48202924#0 49586951#0 49586951#1 49586951#2 400672353#0 49586897#2"/>
    </vehicle>
    <vehicle id="lc43" type="lc_passenger" depart="34.40" departLane="best" departSpeed="max">
        <route edges="-542393521 894189660 542393523#1 542395209#0 542395209#1 542395209#4 542395209#6 542395209#7 84719901#0 84719901#1 84719901#2 84719901#3 400334460#0 300070731#4 400334461#1 400334461#2 400334461#3 400334461#4 -400334461#4"/>
    </vehicle>
    <vehicle id="lc44" type="lc_passenger" depart="35.20" departLane="best" departSpeed="max">
        <route edges="402191968#3 29223062#0 29223062#2 29223062#7 29223062#8 29223062#9 49217114#1 39525774#0 39525774#1"/>
    </vehicle>
    <vehicle id="lc45" type="lc_passenger" depart="36.00" departLane="best" departSpeed="max">
        <route edges="706479282#1 549589229#0 549589229#1 549589229#2 1055114601#0 1055114601#2 42143231 1432098755#1 65141891#0 42207971 337277998#0 310108973#0 310108973#2 48548028#0 48548028#1 48548028#2 86484924#0 86484924#2 48548056#5 549778902#0 48548029#0 542406428#5"/>
    </vehicle>
    <vehicle id="lc46" type="lc_passenger" depart="36.80" departLane="best" departSpeed="max">
        <route edges="301162182#1 1293068631 -48904830#0 -48904813#4 -48904813#2 -48904813#1 533568448 403894674#0 403894674#2 403894673#0 380639370#0"/>
    </vehicle>
    <vehicle id="lc47" type="lc_passenger" depart="37.60" departLane="best" departSpeed="max">
        <route edges="-84719883 59825628#0 59825628#1 -549589229#3 -549589229#1 -549589229#0 -706479282#1 -706479282#0 445106173#0 445106173#1 706387258 -59829979#1 -405172708 -405172706 59829987#0 59829987#1 605637262#3 605637262#4 605637262#5 48553744 -61654221#1 -61654221#0 -48147640#3 -48147640#2 51972213#0 51972213#1 -51972214#1"/>
    </vehicle>
    <vehicle id="lc48" type="lc_passenger" depart="38.40" departLane="best" departSpeed="max">
        <route edges="-144175329#5 -144175329#4 -144175329#3 -144175329#2 -144175329#1 144175334#4 334122581 400332929 46228068 549589231#3 549589231#4 549589231#5 549589231#6 46228069 400332925#0 42207982#0 42207982#2 -400335425#1 -400335425#0 -335232729#5 -335232729#4 -335232729#3 380635441#1 380635441#2 380635441#3 380635441#6 49586895"/>
    </vehicle>
    <vehicle id="lc49" type="lc_passenger" depart="39.20" departLane="best" departSpeed="max">
        <route edges="-48860950#1 -338566787#4 -338566787#3 -338566787#1 -338566787#0"/>
    </vehicle>
    <vehicle id="lc50" type="lc_passenger" depart="40.00" departLane="best" departSpeed="max">
        <route edges="49577742#5 49577739#1 49577739#2 -47198333#2 -47198333#1 255610155 940158936#0 940158936#4 940158936#5 893240697 42201276#0 42201277#3 42492699#5 410645791 410645793"/>
    </vehicle>
    <vehicle id="lc51" type="lc_passenger" depart="40.80" departLane="best" departSpeed="max">
        <route edges="-402762620 42195044#7 42141326#2 42141326#4 42141326#7 554582106#9 554582106#12 554582106#13 49222366#9 42201282#0 48853358 42201275#0 42453883#6 42453881#0 338426548 542407414#0 542407414#1 334948974#0 40972458 1303486700 992504607 640993657#0 45429547#0"/>
    </vehicle>
    <vehicle id="lc52" type="lc_passenger" depart="41.60" departLane="best" departSpeed="max">
        <route edges="484829765#4 484829765#5 -242069237#1 559145527#2 895455492 48147639#0 48147639#1 40972466#9 40972466#10 40972466#11 40972466#0 40972466#1 416637792 -305085227 -406209021 -81508882 -895455490#5"/>
    </vehicle>
    <vehicle id="lc53" type="lc_passenger" depart="42.40" departLane="best" departSpeed="max">
        <route edges="305214684 48202933 48500734#13 48500734#2 303057278 48202930 48202929#0 48202921 389741417#0 118664583#0 118664583#1 118664583#2 118664583#6 118664583#7 45394212#2 402768070#0 49577532#0"/>
    </vehicle>
    <vehicle id="lc54" type="lc_passenger" depart="43.20" departLane="best" departSpeed="max">
        <route edges="534903531#2 534903531#3 534903531#4 -311202507#1 427931812 45424962#3 895021244 45429565#1 45429565#2 552506216 552506215#0 42207965 427719632#1 40972466#1 40972466#2 40972466#3 304102912 875629476 304102914 338566781#0 338566781#2 311652835#0 311652835#1 338566780#0 338566780#1 61426871#0 61426871#1 86484909#0"/>
    </vehicle>
    <vehicle id="lc55" type="lc_passenger" depart="44.00" departLane="best" departSpeed="max">
        <route edges="48548015#0 48548014#2 48860950#4 -306725311#2 -306725311#1 542406430#0 306725304#0 404799263"/>
    </vehicle>
    <vehicle id="lc56" type="lc_passenger" depart="44.80" departLane="best" departSpeed="max">
        <route edges="-48860950#4 -48548014#2 -48548014#1 48548010#2 338566787#2"/>
    </vehicle>
    <vehicle id="lc57" type="lc_passenger" depart="45.60" departLane="best" departSpeed="max">
        <route edges="553331430 542393509#0 45393764#1 45393772#10 -45393801#1 -400908321 -400907051#0 400907052"/>
    </vehicle>
    <vehicle id="lc58" type="lc_passenger" depart="46.40" departLane="best" departSpeed="max">
        <route edges="389741419 42141326#0 42141326#1 42141326#2 42141326#4 42141326#7 42141326#9"/>
    </vehicle>
    <vehicle id="lc59" type="lc_passenger" depart="47.20" departLane="best" departSpeed="max">
        <route edges="-48548032#6 -48548032#5 402912987#0 402912987#2 48548029#7 310108974#4 86484898#0 946937430#5 45424966#0 560354132 427721626 300304414#5 300304414#6 300304414#7 300304414#0 300309586 337277995"/>
    </vehicle>
    <vehicle id="lc60" type="lc_passenger" depart="48.00" departLane="best" departSpeed="max">
        <route edges="267553754#0 447252437 48859299 523917171#0 523917171#1 523917171#2 48859304#0 45393772#7 45393772#8 45393772#9 45393772#10 45393772#11 45393772#12"/>
    </vehicle>
    <vehicle id="lc61" type="lc_passenger" depart="48.80" departLane="best" departSpeed="max">
        <route edges="-485014676#1 -485014676#0 485014677 1335059817#1 42201267#3 42201267#3-AddedOffRampEdge 398525662#0 398525662#1 552715042#4 552715042#5 552715042#1 558928270 49834388#1 79793743#0 333179949 766389709 79793742 46228461#1 542395228 401126213 1245299618 333201391#0 40972450#5 40972450#8 40972450#1 47234384 416636170#0 416636170#1 48548066 330169156 48549278 48548061#0 48548061#2 84865274#1 48549277#0 303119547#1 330169155"/>
    </vehicle>
    <vehicle id="lc62" type="lc_passenger" depart="49.60" departLane="best" departSpeed="max">
        <route edges="311212627#2 -311212627#2 47198301#1 47198301#2 49577754#0 49577754#1 49577754#2 -84719888#2 -84719888#0 542393524#0 542393514#0 542393514#1 542393521 48202924#0 48202924#1 48202924#2 48202924#3 49586905#0 49586905#1"/>
    </vehicle>
    <vehicle id="lc63" type="lc_passenger" depart="50.40" departLane="best" departSpeed="max">
        <route edges="48548032#5 48548032#6 -310108974#1 -310108974#0 310108973#0 310108973#2 310108973#4 310108973#5 542406427#0 542406426#0 552506217#0 48859291#0 48859291#1 42143234#2 42143234#3 42143234#4"/>
    </vehicle>
    <vehicle id="lc64" type="lc_passenger" depart="51.20" departLane="best" departSpeed="max">
        <route edges="-400672352#0 400672352#0 400672352#1 400672352#2 400672352#4 542393521"/>
    </vehicle>
    <vehicle id="lc65" type="lc_passenger" depart="52.00" departLane="best" departSpeed="max">
        <route edges="49586951#0 49586951#1 49586910#1 548317336#0 542395209#1 542395209#4 542395209#6 49586971#0 -49586955"/>
    </vehicle>
    <vehicle id="lc66" type="lc_passenger" depart="52.80" departLane="best" departSpeed="max">
        <route edges="49586949#1 300070733#3 49586946#1 48908512#8 48908512#9 -608473624#2 -608473624#0 -608473625 -84720001 49577046#0 49577046#4 49577046#5 -345400884#0 311212627#6 311212627#8 47198334#0 47198334#1 47198334#2 -49577209 -49577210 402915813#0 49577761 402915827"/>
    </vehicle>
    <vehicle id="lc67" type="lc_passenger" depart="53.60" departLane="best" departSpeed="max">
        <route edges="-59829982#7 -59829982#6 -59829982#5 -59829982#4 -59829982#3 -59829982#2 -59829982#1 895455492"/>
    </vehicle>
    <vehicle id="lc68" type="lc_passenger" depart="54.40" departLane="best" departSpeed="max">
        <route edges="61426871#2 61426871#4 61426871#5 48148919 -895455490#2 -895455490#0 -42143228 -432676623#2 45388030#3 45388030#5 534903531#0 534903531#2 534903531#3 534903524#2 534903524#3"/>
    </vehicle>
    <vehicle id="lc69" type="lc_passenger" depart="55.20" departLane="best" departSpeed="max">
        <route edges="144175299#2 144175299#3 144175299#4 144175299#5 144175334#2 144175334#3 144175334#4 334122581 400332929 46228068 549589231#3 549589231#4 549589231#5 549589231#6 46228069 400332925#0 42207982#0 42207982#2 -400335425#1 -400335425#0 -336161682#1 -336161682#0"/>
    </vehicle>
    <vehicle id="lc70" type="lc_passenger" depart="56.00" departLane="best" departSpeed="max">
        <route edges="399679493 -1515700238#2 -542434375#2 430870741#0 48204566#0 48204566#2 -48204566#2"/>
    </vehicle>
    <vehicle id="lc71" type="lc_passenger" depart="56.80" departLane="best" departSpeed="max">
        <route edges="894857846 -48860950#1 -338566787#4 -338566787#3 -338566787#1 -338566787#0 -269102909#1 269102910 545148169#1 45429565#2 552506216 552506215#0 42207965"/>
    </vehicle>
    <vehicle id="lc72" type="lc_passenger" depart="57.60" departLane="best" departSpeed="max">
        <route edges="-345400884#2 -345400884#0 -311212627#5 -311212627#4 -311212627#3 -311212627#2 47198301#1 47198301#2 47198301#3 84720001 608473625 608473624#0 608473624#2 84719901#0 84719901#1 84719901#2 300070733#6 300070733#7 300070733#8 49578949#0"/>
    </vehicle>
    <vehicle id="lc73" type="lc_passenger" depart="58.40" departLane="best" departSpeed="max">
        <route edges="400006773#1 400006773#2 248268266#2 400016016 40972463#4 42143233#0 42143233#1 -549778901#2 -549778901#1 269102410#0"/>
    </vehicle>
    <vehicle id="lc74" type="lc_passenger" depart="59.20" departLane="best" departSpeed="max">
        <route edges="552646975#3 552646975#5 492443599#0 492443599#1 552651836 48500734#2 48500734#3 48500734#5 48500734#6 48500734#8 48500734#11 305214684 552654210 542435213 -554134453 -48502727 48502728 48502734#1 48502734#2 48502734#3 48502734#4 48502734#5 534903507 894133290 506574923#0 49218744"/>
    </vehicle>
    <vehicle id="lc75" type="lc_passenger" depart="60.00" departLane="best" departSpeed="max">
        <route edges="49577752 -49577748#2 -49577748#1 -49577748#0 48908512#5 48908512#6 48908512#7 48908512#8 48908512#9 -608473624#2 -608473624#0 -608473625 -84720001 49577046#0 49577046#4 48909342#1 48909342#2 -311212627#3 -311212627#2 -311212627#1 -311212627#0"/>
    </vehicle>
    <vehicle id="lc76" type="lc_passenger" depart="60.80" departLane="best" departSpeed="max">
        <route edges="42140278#0 42140278#1 49222372#0 42207931 49217115#0 553352498#7 553352498#8"/>
    </vehicle>
    <vehicle id="lc77" type="lc_passenger" depart="61.60" departLane="best" departSpeed="max">
        <route edges="49582157#2 305792855#1 374506937#1 374506937#2 374506937#3 374506937#4 374506937#5 374506937#6 47861235#0 47861235#1 47861235#2 186585059#0 186585059#1 40972457#2"/>
    </vehicle>
    <vehicle id="lc78" type="lc_passenger" depart="62.40" departLane="best" departSpeed="max">
        <route edges="305792855#0 305792855#1 305792855#2 335232729#0 400672355#1 49586930#1 49586927#0 49586927#1 49586895 -49586968#1 -49586968#0 300070731#2 49586952#0 -49586963 49586963"/>
    </vehicle>
    <vehicle id="lc79" type="lc_passenger" depart="63.20" departLane="best" departSpeed="max">
        <route edges="398396671 400264796#0 895716698 400264794 84865274#0 84865274#1 48549277#0 303119547#1 48963742 48548063"/>
    </vehicle>
    <vehicle id="lc80" type="lc_passenger" depart="64.00" departLane="best" departSpeed="max">
        <route edges="553331426 542393800#0"/>
    </vehicle>
    <vehicle id="lc81" type="lc_passenger" depart="64.80" departLane="best" departSpeed="max">
        <route edges="400672356#1 374506937#4 374506937#5 374506937#6 552667592#4 552667592#5 894189660 542393523#1 542395209#0 542395209#1 542395209#4 542395209#6 542395209#7 84719901#0 84719901#1 84719901#2 300070733#6 300070733#7 49586965#0 49586967"/>
    </vehicle>
    <vehicle id="lc82" type="lc_passenger" depart="65.60" departLane="best" departSpeed="max">
        <route edges="492468579 492468486 554582106#0 40668087#4 45429543#6 492471412#0 492443337#0 492443337#2 35287032#1 35287032#2 35287032#4 35287032#5 35287032#6 351440624#2 351440624#4 406261770#7"/>
    </vehicle>
    <vehicle id="lc83" type="lc_passenger" depart="66.40" departLane="best" departSpeed="max">
        <route edges="86134852#1 86134852#2 86134852#3 86134852#4 -403563921#0 -552185879 79793741#9 298741935#0 79793742 46228461#1 47198314 47198313 895742359 300304414#3 300304414#4 300304414#5 300304414#6 300304414#7 300304414#0 300309586 337277995 300314902#0 65107402#2 65107402#3 549589230#0 86134883#0 86134883#1 86134869 86134856#2 -86134876"/>
    </vehicle>
    <vehicle id="lc84" type="lc_passenger" depart="67.20" departLane="best" departSpeed="max">
        <route edges="48548025#1 402908026 406976392 -406976392 -402908026 -48548025#1 -48548028#0 310108973#4 310108973#5 542406427#0 542406426#0 -48548000#1"/>
    </vehicle>
    <vehicle id="lc85" type="lc_passenger" depart="68.00" departLane="best" departSpeed="max">
        <route edges="49577754#2 -84719888#2 -84719888#0 542393524#0 542393514#0 542393514#1 -400672352#4 -400672352#2 402781584#0 49578946"/>
    </vehicle>
    <vehicle id="lc86" type="lc_passenger" depart="68.80" departLane="best" departSpeed="max">
        <route edges="533567984#1 533567984#2 252699160#0 -312128240#4 -312128240#3 -312128240#2 -312128240#1 48905436#0 48905436#1 -301162182#2 1293068631 48904830#1 -48904826#1"/>
    </vehicle>
    <vehicle id="lc87" type="lc_passenger" depart="69.60" departLane="best" departSpeed="max">
        <route edges="48908512#4 48908512#5 48908512#6 48908512#7 48908512#8 48908512#9 84719901#0 84719901#1 84719901#2 84719901#3 400334460#0 300070731#4 400334461#1 -400334461#1"/>
    </vehicle>
    <vehicle id="lc88" type="lc_passenger" depart="70.40" departLane="best" departSpeed="max">
        <route edges="250024018#1 42454301#4 48860950#0 48860950#1 48860950#2 48860950#3 -48548014#2 -48548014#1 -48548014#0 402940389#2 338566786#1 48548010#0 48548010#1"/>
    </vehicle>
    <vehicle id="lc89" type="lc_passenger" depart="71.20" departLane="best" departSpeed="max">
        <route edges="48548010#2 -338566787#1 -338566787#0 338566787#0"/>
    </vehicle>
    <vehicle id="lc90" type="lc_passenger" depart="72.00" departLane="best" departSpeed="max">
        <route edges="767900974#2 -400334460#1 -400334460#0 -84719901#3 300070733#6 300070733#7 49586965#0 49586967"/>
    </vehicle>
    <vehicle id="lc91" type="lc_passenger" depart="72.80" departLane="best" departSpeed="max">