<?xml version="1.0" encoding="UTF-8"?>

<!-- generated on 2026-07-13 02:21:48.051582 by Eclipse SUMO randomTrips.py v1.27.1
<configuration>
    <net-file value="cuenca.net.xml"/>
    <output-trip-file value="rush.trips.xml"/>
    <prefix value="rh"/>
    <trip-attributes value="departLane=&quot;best&quot; departSpeed=&quot;max&quot;"/>
    <vehicle-class value="passenger"/>
    <fringe-factor value="1"/>
    <min-distance value="500.0"/>
    <intermediate value="1"/>
    <end value="900.0"/>
    <period value="0.25"/>
</configuration>
-->

<routes xmlns:xsi="http://www.w3.org/2001/XMLSchema-instance" xsi:noNamespaceSchemaLocation="http://sumo.dlr.de/xsd/routes_file.xsd">
    <vType id="rh_passenger" vClass="passenger"/>
    <trip id="rh0" depart="0.00" from="47198333#4" to="208781831" via="-301180647#0"  departLane="best" departSpeed="max" type="rh_passenger"/>
    <trip id="rh1" depart="0.25" from="-543378587" to="48548053" via="49222366#0"  departLane="best" departSpeed="max" type="rh_passenger"/>
    <trip id="rh2" depart="0.50" from="552667591#4" to="399679493" via="-45388030#4"  departLane="best" departSpeed="max" type="rh_passenger"/>
    <trip id="rh3" depart="0.75" from="-283122508#0" to="406996046#0" via="-972644144#3"  departLane="best" departSpeed="max" type="rh_passenger"/>
    <trip id="rh4" depart="1.00" from="-250051647#4" to="48537825" via="-84719888#2"  departLane="best" departSpeed="max" type="rh_passenger"/>
    <trip id="rh5" depart="1.25" from="42141326#4" to="45393809#0" via="1023791771#0"  departLane="best" departSpeed="max" type="rh_passenger"/>
    <trip id="rh6" depart="1.50" from="49586951#1" to="49586971#1" via="-144175299#5"  departLane="best" departSpeed="max" type="rh_passenger"/>
    <trip id="rh7" depart="1.75" from="48552362#0" to="-49577744" via="334122581"  departLane="best" departSpeed="max" type="rh_passenger"/>
    <trip id="rh8" depart="2.00" from="81508882" to="-45393762#2" via="330169156"  departLane="best" departSpeed="max" type="rh_passenger"/>
    <trip id="rh9" depart="2.25" from="-404261127#1" to="45427996#2" via="542406428#0"  departLane="best" departSpeed="max" type="rh_passenger"/>
    <trip id="rh10" depart="2.50" from="49586938#0" to="42201259#11" via="49217105#0"  departLane="best" departSpeed="max" type="rh_passenger"/>
    <trip id="rh11" depart="2.75" from="86134873#0" to="42207928#0" via="374506937#3"  departLane="best" departSpeed="max" type="rh_passenger"/>
    <trip id="rh12" depart="3.00" from="511167714#1" to="542417196#6" via="48147639#1"  departLane="best" departSpeed="max" type="rh_passenger"/>
    <trip id="rh13" depart="3.25" from="42207980#0" to="-335232729#2" via="48904813#0"  departLane="best" departSpeed="max" type="rh_passenger"/>
    <trip id="rh14" depart="3.50" from="-559145527#0" to="-405025243#1" via="29223062#8"  departLane="best" departSpeed="max" type="rh_passenger"/>
    <trip id="rh15" depart="3.75" from="-59829964#2" to="242087298#0" via="-47861224#1"  departLane="best" departSpeed="max" type="rh_passenger"/>
    <trip id="rh16" depart="4.00" from="47198304" to="337277977#1" via="338566786#10"  departLane="best" departSpeed="max" type="rh_passenger"/>
    <trip id="rh17" depart="4.25" from="-49589765#2" to="645041668#0" via="249653686#2"  departLane="best" departSpeed="max" type="rh_passenger"/>
    <trip id="rh18" depart="4.50" from="48147640#3" to="-50123511" via="47198330#2"  departLane="best" departSpeed="max" type="rh_passenger"/>
    <trip id="rh19" depart="4.75" from="48904824#1" to="338566786#7" via="-49589798#0"  departLane="best" departSpeed="max" type="rh_passenger"/>
    <trip id="rh20" depart="5.00" from="895028863#0" to="42453879#0" via="48502734#5"  departLane="best" departSpeed="max" type="rh_passenger"/>
    <trip id="rh21" depart="5.25" from="48548032#0" to="49578946" via="542395234#0"  departLane="best" departSpeed="max" type="rh_passenger"/>
    <trip id="rh22" depart="5.50" from="-573216742" to="300393827#0" via="-311212627#0"  departLane="best" departSpeed="max" type="rh_passenger"/>
    <trip id="rh23" depart="5.75" from="-893098022#3" to="697644177#0" via="-86484942#2"  departLane="best" departSpeed="max" type="rh_passenger"/>
    <trip id="rh24" depart="6.00" from="549589229#1" to="48538986#1" via="305497106#0"  departLane="best" departSpeed="max" type="rh_passenger"/>
    <trip id="rh25" depart="6.25" from="334948975#3" to="402762623#0" via="60204532#4"  departLane="best" departSpeed="max" type="rh_passenger"/>
    <trip id="rh26" depart="6.50" from="-86484930#1" to="424827045" via="144175304"  departLane="best" departSpeed="max" type="rh_passenger"/>
    <trip id="rh27" depart="6.75" from="-86484909#1" to="554944534#0" via="45394213#2"  departLane="best" departSpeed="max" type="rh_passenger"/>
    <trip id="rh28" depart="7.00" from="334968135#0" to="946936882" via="1006284719"  departLane="best" departSpeed="max" type="rh_passenger"/>
    <trip id="rh29" depart="7.25" from="404105016#0" to="-336149058#0" via="-45393770#1"  departLane="best" departSpeed="max" type="rh_passenger"/>
    <trip id="rh30" depart="7.50" from="-410339451#0" to="49586905#3" via="48202925#0"  departLane="best" departSpeed="max" type="rh_passenger"/>
    <trip id="rh31" depart="7.75" from="351440624#1" to="340205159#1" via="-400908321"  departLane="best" departSpeed="max" type="rh_passenger"/>
    <trip id="rh32" depart="8.00" from="897096371#0" to="86134882#1" via="42201277#1"  departLane="best" departSpeed="max" type="rh_passenger"/>
    <trip id="rh33" depart="8.25" from="48548027" to="144175334#2" via="42207928#3"  departLane="best" departSpeed="max" type="rh_passenger"/>
    <trip id="rh34" depart="8.50" from="47198334#4" to="400262215" via="-48538980#1"  departLane="best" departSpeed="max" type="rh_passenger"/>
    <trip id="rh35" depart="8.75" from="399285450#2" to="552440203#0" via="81508882"  departLane="best" departSpeed="max" type="rh_passenger"/>
    <trip id="rh36" depart="9.00" from="-86484914" to="-534903533#2" via="417420850"  departLane="best" departSpeed="max" type="rh_passenger"/>
    <trip id="rh37" depart="9.25" from="59825632#1" to="269103122#3" via="552440203#1"  departLane="best" departSpeed="max" type="rh_passenger"/>
    <trip id="rh38" depart="9.50" from="47198333#2" to="-48963734#1" via="47198330#2"  departLane="best" departSpeed="max" type="rh_passenger"/>
    <trip id="rh39" depart="9.75" from="492468483#0" to="49578957" via="42207976"  departLane="best" departSpeed="max" type="rh_passenger"/>
    <trip id="rh40" depart="10.00" from="406996046#1" to="303122899#0" via="-1008982928"  departLane="best" departSpeed="max" type="rh_passenger"/>
    <trip id="rh41" depart="10.25" from="-186585058#3" to="552506215#0" via="61426882#3"  departLane="best" departSpeed="max" type="rh_passenger"/>
    <trip id="rh42" depart="10.50" from="51972210#1" to="-380635441#7" via="301180647#1"  departLane="best" departSpeed="max" type="rh_passenger"/>
    <trip id="rh43" depart="10.75" from="549778901#0" to="-410339451#0" via="706479282#1"  departLane="best" departSpeed="max" type="rh_passenger"/>
    <trip id="rh44" depart="11.00" from="401126213" to="49577053" via="-403386104#0"  departLane="best" departSpeed="max" type="rh_passenger"/>
    <trip id="rh45" depart="11.25" from="492471414" to="403563921#0" via="-48555667#5"  departLane="best" departSpeed="max" type="rh_passenger"/>
    <trip id="rh46" depart="11.50" from="42143912#5" to="549778901#0" via="248268266#2"  departLane="best" departSpeed="max" type="rh_passenger"/>
    <trip id="rh47" depart="11.75" from="351440624#4" to="42201266#5" via="-894176464#1"  departLane="best" departSpeed="max" type="rh_passenger"/>
    <trip id="rh48" depart="12.00" from="48904827" to="300070731#3" via="-86134851#2"  departLane="best" departSpeed="max" type="rh_passenger"/>
    <trip id="rh49" depart="12.25" from="895716698" to="400332926#0" via="48547993#0"  departLane="best" departSpeed="max" type="rh_passenger"/>
    <trip id="rh50" depart="12.50" from="405025247" to="-895455492" via="-48548036"  departLane="best" departSpeed="max" type="rh_passenger"/>
    <trip id="rh51" depart="12.75" from="269103111#4" to="1053072563" via="45421576#2"  departLane="best" departSpeed="max" type="rh_passenger"/>
    <trip id="rh52" depart="13.00" from="-533567977#1" to="48202923" via="-403563922#0"  departLane="best" departSpeed="max" type="rh_passenger"/>
    <trip id="rh53" depart="13.25" from="-573216742" to="542416843#0" via="59829964#3"  departLane="best" departSpeed="max" type="rh_passenger"/>
    <trip id="rh54" depart="13.50" from="-394194498" to="48548029#0" via="1304450378"  departLane="best" departSpeed="max" type="rh_passenger"/>
    <trip id="rh55" depart="13.75" from="-514290059" to="641640490" via="-48859304#3"  departLane="best" departSpeed="max" type="rh_passenger"/>
    <trip id="rh56" depart="14.00" from="42201281#1" to="49582158#2" via="406261768#1"  departLane="best" departSpeed="max" type="rh_passenger"/>
    <trip id="rh57" depart="14.25" from="49586944#2" to="-45393809#1" via="-61426868#1"  departLane="best" departSpeed="max" type="rh_passenger"/>
    <trip id="rh58" depart="14.50" from="374506937#5" to="402915819#2" via="400334459#1"  departLane="best" departSpeed="max" type="rh_passenger"/>
    <trip id="rh59" depart="14.75" from="48904824#1" to="893240697" via="48548075"  departLane="best" departSpeed="max" type="rh_passenger"/>
    <trip id="rh60" depart="15.00" from="-404414857" to="311212628#1" via="399285452#2"  departLane="best" departSpeed="max" type="rh_passenger"/>
    <trip id="rh61" depart="15.25" from="542406430#0" to="-59829964#3" via="144175309"  departLane="best" departSpeed="max" type="rh_passenger"/>
    <trip id="rh62" depart="15.50" from="-84618189#1" to="400335425#0" via="605637262#6"  departLane="best" departSpeed="max" type="rh_passenger"/>
    <trip id="rh63" depart="15.75" from="542406428#6" to="-338566786#1" via="424827044#0"  departLane="best" departSpeed="max" type="rh_passenger"/>
    <trip id="rh64" depart="16.00" from="992235860" to="86134873#0" via="542393517#6"  departLane="best" departSpeed="max" type="rh_passenger"/>
    <trip id="rh65" depart="16.25" from="605352055" to="-49586968#0" via="542406430#0"  departLane="best" departSpeed="max" type="rh_passenger"/>
    <trip id="rh66" depart="16.50" from="401126212#0" to="389741417#0" via="-895265101#2"  departLane="best" departSpeed="max" type="rh_passenger"/>
    <trip id="rh67" depart="16.75" from="-338566786#0" to="893581213" via="374506937#5"  departLane="best" departSpeed="max" type="rh_passenger"/>
    <trip id="rh68" depart="17.00" from="-86484936" to="402191977#1" via="49586905#2"  departLane="best" departSpeed="max" type="rh_passenger"/>
    <trip id="rh69" depart="17.25" from="351440624#2" to="895742358" via="84618188"  departLane="best" departSpeed="max" type="rh_passenger"/>
    <trip id="rh70" depart="17.50" from="42195042#2" to="-49577533" via="48908522#4"  departLane="best" departSpeed="max" type="rh_passenger"/>
    <trip id="rh71" depart="17.75" from="1335059817#1" to="45393763#3" via="86134865"  departLane="best" departSpeed="max" type="rh_passenger"/>
    <trip id="rh72" depart="18.00" from="42140278#0" to="-380635441#5" via="492471413#1"  departLane="best" departSpeed="max" type="rh_passenger"/>
    <trip id="rh73" depart="18.25" from="42492699#4" to="542402347#4" via="42140278#1"  departLane="best" departSpeed="max" type="rh_passenger"/>
    <trip id="rh74" depart="18.50" from="-48548030" to="-405025244#0" via="84720001"  departLane="best" departSpeed="max" type="rh_passenger"/>
    <trip id="rh75" depart="18.75" from="-48905436#1" to="48548047" via="45427994#1"  departLane="best" departSpeed="max" type="rh_passenger"/>
    <trip id="rh76" depart="19.00" from="-59829982#5" to="553352498#0" via="-48548033#0"  departLane="best" departSpeed="max" type="rh_passenger"/>
    <trip id="rh77" depart="19.25" from="-706479282#1" to="47198334#3" via="45427992#0"  departLane="best" departSpeed="max" type="rh_passenger"/>
    <trip id="rh78" depart="19.50" from="338566787#4" to="42141326#9" via="45394212#6"  departLane="best" departSpeed="max" type="rh_passenger"/>
    <trip id="rh79" depart="19.75" from="61654221#0" to="48904818#1" via="-86134862"  departLane="best" departSpeed="max" type="rh_passenger"/>
    <trip id="rh80" depart="20.00" from="-60204533" to="48548032#5" via="397364884#3"  departLane="best" departSpeed="max" type="rh_passenger"/>
    <trip id="rh81" depart="20.25" from="1419971756" to="492470512#0" via="305792855#1"  departLane="best" departSpeed="max" type="rh_passenger"/>
    <trip id="rh82" depart="20.50" from="-397524540" to="972644144#0" via="403894673#0"  departLane="best" departSpeed="max" type="rh_passenger"/>
    <trip id="rh83" depart="20.75" from="897096371#0" to="-86134863#6" via="-403894676"  departLane="best" departSpeed="max" type="rh_passenger"/>
    <trip id="rh84" depart="21.00" from="-86484936" to="552506221#2" via="62203283#4"  departLane="best" departSpeed="max" type="rh_passenger"/>
    <trip id="rh85" depart="21.25" from="549778902#1" to="-49577750" via="345400884#5"  departLane="best" departSpeed="max" type="rh_passenger"/>
    <trip id="rh86" depart="21.50" from="51972215#0" to="46309326#2" via="48904810"  departLane="best" departSpeed="max" type="rh_passenger"/>
    <trip id="rh87" depart="21.75" from="894189660" to="-144175299#2" via="48548010#0"  departLane="best" departSpeed="max" type="rh_passenger"/>
    <trip id="rh88" depart="22.00" from="49586985#1" to="48548013#1" via="300304414#0"  departLane="best" departSpeed="max" type="rh_passenger"/>
    <trip id="rh89" depart="22.25" from="62203283#6" to="-48538979" via="-48860950#3"  departLane="best" departSpeed="max" type="rh_passenger"/>
    <trip id="rh90" depart="22.50" from="-406986591" to="175493669" via="427421010#1"  departLane="best" departSpeed="max" type="rh_passenger"/>
    <trip id="rh91" depart="22.75" from="45393772#3" to="-681482744" via="48908520"  departLane="best" departSpeed="max" type="rh_passenger"/>
    <trip id="rh92" depart="23.00" from="47198277" to="404994777#0" via="247420394#0"  departLane="best" departSpeed="max" type="rh_passenger"/>
    <trip id="rh93" depart="23.25" from="559164160" to="-45393762#0" via="542406423#0"  departLane="best" departSpeed="max" type="rh_passenger"/>
    <trip id="rh94" depart="23.50" from="351440624#5" to="-118367899" via="264452213#8"  departLane="best" departSpeed="max" type="rh_passenger"/>
    <trip id="rh95" depart="23.75" from="49577049#0" to="144175314#1" via="48501815#4"  departLane="best" departSpeed="max" type="rh_passenger"/>
    <trip id="rh96" depart="24.00" from="48909342#11" to="400015744#1" via="42492699#4"  departLane="best" departSpeed="max" type="rh_passenger"/>
    <trip id="rh97" depart="24.25" from="-1293068631" to="552643689#1" via="-404994775"  departLane="best" departSpeed="max" type="rh_passenger"/>
    <trip id="rh98" depart="24.50" from="558928270" to="533567980" via="42453883#2"  departLane="best" departSpeed="max" type="rh_passenger"/>
    <trip id="rh99" depart="24.75" from="42456620" to="-48548057" via="-48963734#0"  departLane="best" departSpeed="max" type="rh_passenger"/>
    <trip id="rh100" depart="25.00" from="144175329#2" to="49586930#1" via="567799240#1"  departLane="best" departSpeed="max" type="rh_passenger"/>
    <trip id="rh101" depart="25.25" from="542406428#0" to="-86134851#4" via="567799240#1"  departLane="best" departSpeed="max" type="rh_passenger"/>
    <trip id="rh102" depart="25.50" from="-84618188" to="49581564" via="-48147640#3"  departLane="best" departSpeed="max" type="rh_passenger"/>
    <trip id="rh103" depart="25.75" from="552506216" to="47234384" via="400006774#0"  departLane="best" departSpeed="max" type="rh_passenger"/>
    <trip id="rh104" depart="26.00" from="-48548014#2" to="542434375#0" via="61654221#1"  departLane="best" departSpeed="max" type="rh_passenger"/>
    <trip id="rh105" depart="26.25" from="86134884#0" to="552619451#2" via="50561602#0"  departLane="best" departSpeed="max" type="rh_passenger"/>
    <trip id="rh106" depart="26.50" from="-248268266#5" to="306725311#4" via="49222366#0"  departLane="best" departSpeed="max" type="rh_passenger"/>
    <trip id="rh107" depart="26.75" from="61426871#2" to="542434369" via="49589752"  departLane="best" departSpeed="max" type="rh_passenger"/>
    <trip id="rh108" depart="27.00" from="49586952#2" to="49582168#1" via="249653686#1"  departLane="best" departSpeed="max" type="rh_passenger"/>
    <trip id="rh109" depart="27.25" from="-406996047#1" to="542407412" via="552479284"  departLane="best" departSpeed="max" type="rh_passenger"/>
    <trip id="rh110" depart="27.50" from="-543358347" to="402781584#1" via="51972210#1"  departLane="best" departSpeed="max" type="rh_passenger"/>
    <trip id="rh111" depart="27.75" from="144175313#0" to="-972644144#4" via="49586965#1"  departLane="best" departSpeed="max" type="rh_passenger"/>
    <trip id="rh112" depart="28.00" from="-248268266#0" to="305497106#0" via="-62202963"  departLane="best" departSpeed="max" type="rh_passenger"/>
    <trip id="rh113" depart="28.25" from="542407412" to="248268266#0" via="86134859#1"  departLane="best" departSpeed="max" type="rh_passenger"/>
    <trip id="rh114" depart="28.50" from="47198334#7" to="893216335#0" via="399278568"  departLane="best" departSpeed="max" type="rh_passenger"/>
    <trip id="rh115" depart="28.75" from="416636168" to="-48538975#0" via="65107402#3"  departLane="best" departSpeed="max" type="rh_passenger"/>
    <trip id="rh116" depart="29.00" from="86134863#5" to="86134852#1" via="-579372767"  departLane="best" departSpeed="max" type="rh_passenger"/>
    <trip id="rh117" depart="29.25" from="-86484937" to="400262215" via="-485014676#2"  departLane="best" departSpeed="max" type="rh_passenger"/>
    <trip id="rh118" depart="29.50" from="48904820" to="45429543#0" via="305213949#1"  departLane="best" departSpeed="max" type="rh_passenger"/>
    <trip id="rh119" depart="29.75" from="404414857" to="45393761#2" via="382132174#0"  departLane="best" departSpeed="max" type="rh_passenger"/>
    <trip id="rh120" depart="30.00" from="-86134852#2" to="-1107547936#1" via="48904830#0"  departLane="best" departSpeed="max" type="rh_passenger"/>
    <trip id="rh121" depart="30.25" from="605352051#0" to="48905436#1" via="42207956#1"  departLane="best" departSpeed="max" type="rh_passenger"/>
    <trip id="rh122" depart="30.50" from="48909342#4" to="336149056" via="48548061#2"  departLane="best" departSpeed="max" type="rh_passenger"/>
    <trip id="rh123" depart="30.75" from="-393482712#2" to="305928627#0" via="48548033#2"  departLane="best" departSpeed="max" type="rh_passenger"/>
    <trip id="rh124" depart="31.00" from="1499176245" to="48905436#2" via="542406428#5"  departLane="best" departSpeed="max" type="rh_passenger"/>
    <trip id="rh125" depart="31.25" from="144175298#0" to="39525774#4" via="303119547#0"  departLane="best" departSpeed="max" type="rh_passenger"/>
    <trip id="rh126" depart="31.50" from="335232730#1" to="-48548053" via="300070731#2"  departLane="best" departSpeed="max" type="rh_passenger"/>
    <trip id="rh127" depart="31.75" from="340205160#1" to="48548056#0" via="65141879"  departLane="best" departSpeed="max" type="rh_passenger"/>
    <trip id="rh128" depart="32.00" from="554582109#0" to="269103125#7" via="47861233"  departLane="best" departSpeed="max" type="rh_passenger"/>
    <trip id="rh129" depart="32.25" from="42143234#1" to="250051647#4" via="-1006284720#1"  departLane="best" departSpeed="max" type="rh_passenger"/>
    <trip id="rh130" depart="32.50" from="374506937#0" to="48538981#1" via="45393811"  departLane="best" departSpeed="max" type="rh_passenger"/>
    <trip id="rh131" depart="32.75" from="400051328#0" to="-86134869" via="402246190#1"  departLane="best" departSpeed="max" type="rh_passenger"/>
    <trip id="rh132" depart="33.00" from="400332929" to="49586930#1" via="59825625"  departLane="best" departSpeed="max" type="rh_passenger"/>
    <trip id="rh133" depart="33.25" from="-48555667#8" to="416637179" via="-437477136"  departLane="best" departSpeed="max" type="rh_passenger"/>
    <trip id="rh134" depart="33.50" from="49217115#0" to="-895455492" via="48548070"  departLane="best" departSpeed="max" type="rh_passenger"/>
    <trip id="rh135" depart="33.75" from="-49578959" to="118664583#2" via="-301162960#5"  departLane="best" departSpeed="max" type="rh_passenger"/>
    <trip id="rh136" depart="34.00" from="400334461#1" to="-403560846#1" via="542406434#0"  departLane="best" departSpeed="max" type="rh_passenger"/>
    <trip id="rh137" depart="34.25" from="338566780#1" to="-59830980#0" via="48204570"  departLane="best" departSpeed="max" type="rh_passenger"/>
    <trip id="rh138" depart="34.50" from="48548766#0" to="118366336#1" via="40972471#0"  departLane="best" departSpeed="max" type="rh_passenger"/>
    <trip id="rh139" depart="34.75" from="48204575#0" to="492468483#0" via="-144175299#1"  departLane="best" departSpeed="max" type="rh_passenger"/>
    <trip id="rh140" depart="35.00" from="49577045#1" to="400008031#0" via="-48202929#1"  departLane="best" departSpeed="max" type="rh_passenger"/>
    <trip id="rh141" depart="35.25" from="-48860950#5" to="417420850" via="84719883"  departLane="best" departSpeed="max" type="rh_passenger"/>
    <trip id="rh142" depart="35.50" from="-334104877#2" to="542395209#7" via="144175313#1"  departLane="best" departSpeed="max" type="rh_passenger"/>
    <trip id="rh143" depart="35.75" from="399679491" to="48548026#3" via="49589750#0"  departLane="best" departSpeed="max" type="rh_passenger"/>
    <trip id="rh144" depart="36.00" from="894193159#1" to="79793741#3" via="45427996#0"  departLane="best" departSpeed="max" type="rh_passenger"/>
    <trip id="rh145" depart="36.25" from="552667591#0" to="48905436#0" via="47198334#9"  departLane="best" departSpeed="max" type="rh_passenger"/>
    <trip id="rh146" depart="36.50" from="403560846#2" to="42201279#4" via="534903524#0"  departLane="best" departSpeed="max" type="rh_passenger"/>
    <trip id="rh147" depart="36.75" from="553352498#8" to="403560846#2" via="492443599#0"  departLane="best" departSpeed="max" type="rh_passenger"/>
    <trip id="rh148" depart="37.00" from="-86134875" to="484829767" via="144175306#1"  departLane="best" departSpeed="max" type="rh_passenger"/>
    <trip id="rh149" depart="37.25" from="492471414" to="48147640#3" via="42201259#8"  departLane="best" departSpeed="max" type="rh_passenger"/>
    <trip id="rh150" depart="37.50" from="-946936882" to="250034429" via="-405030855"  departLane="best" departSpeed="max" type="rh_passenger"/>
    <trip id="rh151" depart="37.75" from="-895455490#0" to="42201267#2" via="310108973#0"  departLane="best" departSpeed="max" type="rh_passenger"/>
    <trip id="rh152" depart="38.00" from="-48202930" to="48555672#1" via="1180119367"  departLane="best" departSpeed="max" type="rh_passenger"/>
    <trip id="rh153" depart="38.25" from="48555674" to="39525774#0" via="-402762620"  departLane="best" departSpeed="max" type="rh_passenger"/>
    <trip id="rh154" depart="38.50" from="42141326#0" to="-84719883" via="400051329#3"  departLane="best" departSpeed="max" type="rh_passenger"/>
    <trip id="rh155" depart="38.75" from="340205160#0" to="45393772#6" via="59829964#1"  departLane="best" departSpeed="max" type="rh_passenger"/>
    <trip id="rh156" depart="39.00" from="48548075" to="49577740" via="542434373"  departLane="best" departSpeed="max" type="rh_passenger"/>
    <trip id="rh157" depart="39.25" from="311212628#9" to="333201388#0" via="-144175299#2"  departLane="best" departSpeed="max" type="rh_passenger"/>
    <trip id="rh158" depart="39.50" from="49217124#1" to="83631651#0" via="542417196#1"  departLane="best" departSpeed="max" type="rh_passenger"/>
    <trip id="rh159" depart="39.75" from="338566787#2" to="42201277#5" via="492471413#0"  departLane="best" departSpeed="max" type="rh_passenger"/>
    <trip id="rh160" depart="40.00" from="45393772#0" to="-86484942#0" via="1023791771#0"  departLane="best" departSpeed="max" type="rh_passenger"/>
    <trip id="rh161" depart="40.25" from="380635441#6" to="311202507#0" via="-306725311#5"  departLane="best" departSpeed="max" type="rh_passenger"/>
    <trip id="rh162" depart="40.50" from="48548018#0" to="-49586951#2" via="399679491"  departLane="best" departSpeed="max" type="rh_passenger"/>
    <trip id="rh163" depart="40.75" from="400084630#2" to="47861224#0" via="-48555667#2"  departLane="best" departSpeed="max" type="rh_passenger"/>
    <trip id="rh164" depart="41.00" from="-264396528" to="427421010#3" via="39525774#4"  departLane="best" departSpeed="max" type="rh_passenger"/>
    <trip id="rh165" depart="41.25" from="-264396528" to="-48555674" via="48537818"  departLane="best" departSpeed="max" type="rh_passenger"/>
    <trip id="rh166" depart="41.50" from="400008038#0" to="338566786#5" via="-338566787#3"  departLane="best" departSpeed="max" type="rh_passenger"/>
    <trip id="rh167" depart="41.75" from="-50123511" to="49577208#0" via="311212628#5"  departLane="best" departSpeed="max" type="rh_passenger"/>
    <trip id="rh168" depart="42.00" from="311212628#2" to="533190918#1" via="49577045#0"  departLane="best" departSpeed="max" type="rh_passenger"/>
    <trip id="rh169" depart="42.25" from="-84719901#2" to="-250051647#3" via="-410645791"  departLane="best" departSpeed="max" type="rh_passenger"/>
    <trip id="rh170" depart="42.50" from="417416774#0" to="330169156" via="992504611"  departLane="best" departSpeed="max" type="rh_passenger"/>
    <trip id="rh171" depart="42.75" from="48149034#1" to="48538433" via="49586886"  departLane="best" departSpeed="max" type="rh_passenger"/>
    <trip id="rh172" depart="43.00" from="49217126#0" to="-61426871#4" via="766389708"  departLane="best" departSpeed="max" type="rh_passenger"/>
    <trip id="rh173" depart="43.25" from="-208781828" to="-48548040#0" via="-49577748#3"  departLane="best" departSpeed="max" type="rh_passenger"/>
    <trip id="rh174" depart="43.50" from="48538985#0" to="-86484922#1" via="445106174#2"  departLane="best" departSpeed="max" type="rh_passenger"/>
    <trip id="rh175" depart="43.75" from="48553744" to="-49589750#1" via="49577758#0"  departLane="best" departSpeed="max" type="rh_passenger"/>
    <trip id="rh176" depart="44.00" from="45393779#0" to="-48538962#3" via="492471413#1"  departLane="best" departSpeed="max" type="rh_passenger"/>
    <trip id="rh177" depart="44.25" from="49589753#0" to="-48202922#2" via="86134852#3"  departLane="best" departSpeed="max" type="rh_passenger"/>
    <trip id="rh178" depart="44.50" from="-250034823" to="48548056#0" via="304102917"  departLane="best" departSpeed="max" type="rh_passenger"/>
    <trip id="rh179" depart="44.75" from="815723565#0" to="48904813#4" via="397465007#1"  departLane="best" departSpeed="max" type="rh_passenger"/>
    <trip id="rh180" depart="45.00" from="-400334461#3" to="48147642" via="48859299"  departLane="best" departSpeed="max" type="rh_passenger"/>
    <trip id="rh181" depart="45.25" from="-405030855" to="542395228" via="49582153#0"  departLane="best" departSpeed="max" type="rh_passenger"/>
    <trip id="rh182" depart="45.50" from="45393763#2" to="893239412" via="-48548040#0"  departLane="best" departSpeed="max" type="rh_passenger"/>
    <trip id="rh183" depart="45.75" from="49577754#1" to="400016016" via="334968591#2"  departLane="best" departSpeed="max" type="rh_passenger"/>
    <trip id="rh184" depart="46.00" from="306725304#0" to="311305706#0" via="42141326#9"  departLane="best" departSpeed="max" type="rh_passenger"/>
    <trip id="rh185" depart="46.25" from="542393517#9" to="-47861233" via="527757287#2"  departLane="best" departSpeed="max" type="rh_passenger"/>
    <trip id="rh186" depart="46.50" from="84719882#0" to="523917171#1" via="485014676#2"  departLane="best" departSpeed="max" type="rh_passenger"/>
    <trip id="rh187" depart="46.75" from="48583899#1" to="48963740#0" via="401115736#0"  departLane="best" departSpeed="max" type="rh_passenger"/>
    <trip id="rh188" depart="47.00" from="84865274#2" to="49586981" via="250033168#4"  departLane="best" departSpeed="max" type="rh_passenger"/>
    <trip id="rh189" depart="47.25" from="416637179" to="400264795" via="40972452#2"  departLane="best" departSpeed="max" type="rh_passenger"/>
    <trip id="rh190" depart="47.50" from="48905436#1" to="542398110" via="250024018#0"  departLane="best" departSpeed="max" type="rh_passenger"/>
    <trip id="rh191" depart="47.75" from="513993211" to="552619451#2" via="-45388030#1"  departLane="best" departSpeed="max" type="rh_passenger"/>
    <trip id="rh192" depart="48.00" from="-62202963" to="46228457#1" via="404994764"  departLane="best" departSpeed="max" type="rh_passenger"/>
    <trip id="rh193" depart="48.25" from="311212628#1" to="542395234#2" via="-306725311#3"  departLane="best" departSpeed="max" type="rh_passenger"/>
    <trip id="rh194" depart="48.50" from="-48904805" to="49586933#4" via="-894857823"  departLane="best" departSpeed="max" type="rh_passenger"/>
    <trip id="rh195" depart="48.75" from="269103124#1" to="48859304#5" via="552667591#2"  departLane="best" departSpeed="max" type="rh_passenger"/>
    <trip id="rh196" depart="49.00" from="-972644144#4" to="767900973#0" via="-144175334#1"  departLane="best" departSpeed="max" type="rh_passenger"/>
    <trip id="rh197" depart="49.25" from="-402912988" to="404994777#0" via="48909342#10"  departLane="best" departSpeed="max" type="rh_passenger"/>
    <trip id="rh198" depart="49.50" from="49222372#0" to="485182256" via="48859299"  departLane="best" departSpeed="max" type="rh_passenger"/>
    <trip id="rh199" depart="49.75" from="402191987#4" to="-45393762#4" via="49586952#0"  departLane="best" departSpeed="max" type="rh_passenger"/>